33
Coordinates from ORCA-job Dexketoprofen\Dexketoprofen_PBE_def2-TZVP\Dexketoprofen_PBE_def2-TZVP.orcainp E -843.133293769553
  H       1.201290     -0.169320      0.238970
  C       2.267940     -0.116730     -0.022740
  C       3.062190     -0.566290      1.203420
  C       2.431590     -1.112020     -1.171820
  O       1.778880     -0.741140     -2.304300
  O       3.047910     -2.166470     -1.106110
  C       2.602480      1.328070     -0.374840
  C       3.668120      1.673240     -1.223060
  C       3.892770      3.013660     -1.582870
  C       3.122820      4.026080     -1.001910
  C       2.104810      3.699730     -0.109590
  C       1.837300      2.361580      0.189690
  C       4.928070      3.410420     -2.582030
  O       5.489270      4.498750     -2.463910
  C       5.275890      2.525160     -3.729030
  C       6.553310      2.621000     -4.291240
  C       6.926120      1.767800     -5.333320
  C       6.025180      0.818560     -5.813780
  C       4.738110      0.747190     -5.284950
  C       4.355710      1.614220     -4.264250
  H       2.743020     -1.564120      1.524400
  H       2.914500      0.118040      2.045950
  H       4.136000     -0.614450      0.990430
  H       1.294810      0.099460     -2.221630
  H       4.319390      0.892730     -1.614100
  H       3.314570      5.068790     -1.245300
  H       1.515530      4.489480      0.351310
  H       1.031520      2.134850      0.887110
  H       7.264950      3.356240     -3.917380
  H       7.922510      1.838900     -5.763260
  H       6.323120      0.138980     -6.609640
  H       4.032900      0.011410     -5.666070
  H       3.334940      1.559060     -3.898160
33
Coordinates from ORCA-job Dexketoprofen\Dexketoprofen_PBE_def2-TZVP\Dexketoprofen_PBE_def2-TZVP.orcainp E -843.136714693307
  H       1.224347     -0.176608      0.291584
  C       2.286788     -0.111353     -0.003621
  C       3.136016     -0.541512      1.200156
  C       2.425348     -1.099991     -1.165591
  O       1.746363     -0.771251     -2.291129
  O       3.062351     -2.134599     -1.129777
  C       2.569737      1.331739     -0.391902
  C       3.604123      1.672649     -1.273668
  C       3.861634      3.014684     -1.599606
  C       3.096161      4.029681     -1.007529
  C       2.069652      3.700817     -0.123527
  C       1.801693      2.361272      0.173095
  C       4.936993      3.407218     -2.563094
  O       5.534007      4.479556     -2.415190
  C       5.288509      2.502145     -3.698715
  C       6.583390      2.563602     -4.236559
  C       6.946170      1.728022     -5.294389
  C       6.015287      0.832717     -5.830997
  C       4.715760      0.785241     -5.319325
  C       4.353696      1.614067     -4.256850
  H       2.853632     -1.548685      1.536713
  H       2.995220      0.149551      2.041738
  H       4.205230     -0.558432      0.946567
  H       1.267480      0.076378     -2.201369
  H       4.237933      0.886755     -1.689617
  H       3.296244      5.073871     -1.250483
  H       1.471011      4.490609      0.333095
  H       0.989544      2.123358      0.864191
  H       7.311540      3.261984     -3.821670
  H       7.957645      1.774330     -5.701420
  H       6.302671      0.172172     -6.651364
  H       3.984270      0.094676     -5.742678
  H       3.327076      1.578196     -3.891076
33
Coordinates from ORCA-job Dexketoprofen\Dexketoprofen_PBE_def2-TZVP\Dexketoprofen_PBE_def2-TZVP.orcainp E -843.137417754279
  H       1.246509     -0.191489      0.342369
  C       2.307831     -0.114490      0.039055
  C       3.180636     -0.510413      1.238372
  C       2.455153     -1.112010     -1.114450
  O       1.759162     -0.838560     -2.244809
  O       3.105017     -2.136384     -1.068025
  C       2.551157      1.323739     -0.388590
  C       3.588298      1.655413     -1.266816
  C       3.850642      2.991848     -1.606930
  C       3.069852      4.012850     -1.039858
  C       2.021816      3.690684     -0.178419
  C       1.759924      2.354252      0.139582
  C       4.972055      3.369748     -2.524352
  O       5.586902      4.429924     -2.350965
  C       5.305321      2.477298     -3.677445
  C       6.620080      2.476850     -4.176249
  C       6.960305      1.677828     -5.266949
  C       5.985512      0.887167     -5.889497
  C       4.668790      0.900972     -5.417001
  C       4.331721      1.684725     -4.312444
  H       2.928776     -1.520837      1.589361
  H       3.023765      0.193229      2.067230
  H       4.246927     -0.496201      0.969843
  H       1.282844      0.014391     -2.169243
  H       4.227049      0.865273     -1.667741
  H       3.275015      5.053281     -1.297710
  H       1.399502      4.482459      0.243610
  H       0.932627      2.112480      0.812068
  H       7.376839      3.096760     -3.692510
  H       7.988314      1.670598     -5.635576
  H       6.252767      0.261899     -6.744408
  H       3.900387      0.298224     -5.905700
  H       3.296024      1.701350     -3.969816
33
Coordinates from ORCA-job Dexketoprofen\Dexketoprofen_PBE_def2-TZVP\Dexketoprofen_PBE_def2-TZVP.orcainp E -843.137620319492
  H       1.275971     -0.184551      0.401315
  C       2.319642     -0.108483      0.042421
  C       3.258277     -0.520327      1.183471
  C       2.398521     -1.089548     -1.129719
  O       1.650762     -0.794795     -2.222965
  O       3.059738     -2.109520     -1.138916
  C       2.541573      1.333506     -0.387625
  C       3.558220      1.670157     -1.288754
  C       3.812134      3.007801     -1.628926
  C       3.038527      4.024926     -1.043741
  C       2.007727      3.697677     -0.164553
  C       1.759671      2.360365      0.160732
  C       4.926738      3.388930     -2.552421
  O       5.566815      4.429274     -2.358464
  C       5.288989      2.471236     -3.675959
  C       6.616537      2.462684     -4.142106
  C       6.982944      1.653642     -5.215290
  C       6.022219      0.860749     -5.856799
  C       4.695371      0.877245     -5.414418
  C       4.331706      1.669309     -4.323773
  H       3.028469     -1.536172      1.531139
  H       3.141967      0.173418      2.026902
  H       4.306795     -0.495034      0.854413
  H       1.191640      0.063663     -2.105373
  H       4.182609      0.882039     -1.716074
  H       3.240116      5.065542     -1.303015
  H       1.388202      4.485675      0.267692
  H       0.947575      2.110047      0.847878
  H       7.358926      3.087260     -3.642322
  H       8.020085      1.639547     -5.556006
  H       6.309029      0.231041     -6.701411
  H       3.938460      0.271751     -5.916355
  H       3.291564      1.683805     -3.994989
33
Coordinates from ORCA-job Dexketoprofen\Dexketoprofen_PBE_def2-TZVP\Dexketoprofen_PBE_def2-TZVP.orcainp E -843.137889099320
  H       1.282954     -0.167590      0.450851
  C       2.310462     -0.105428      0.047538
  C       3.292356     -0.537527      1.142409
  C       2.321891     -1.079062     -1.131632
  O       1.512942     -0.768899     -2.177493
  O       2.971905     -2.106935     -1.179375
  C       2.536693      1.336396     -0.384966
  C       3.551893      1.668372     -1.292050
  C       3.807595      3.005064     -1.634883
  C       3.033712      4.024384     -1.054244
  C       2.007190      3.702280     -0.169430
  C       1.761050      2.367094      0.165168
  C       4.928156      3.383245     -2.551594
  O       5.533066      4.447318     -2.382998
  C       5.303598      2.467075     -3.670829
  C       6.625436      2.493864     -4.151593
  C       7.004052      1.687347     -5.221986
  C       6.060765      0.860721     -5.845063
  C       4.740498      0.838890     -5.386056
  C       4.364500      1.629080     -4.297903
  H       3.066114     -1.553843      1.489319
  H       3.218555      0.149945      1.995431
  H       4.325439     -0.519005      0.768650
  H       1.066462      0.090255     -2.022648
  H       4.171379      0.878017     -1.722641
  H       3.238459      5.063444     -1.316306
  H       1.391084      4.492500      0.262781
  H       0.954500      2.119549      0.859255
  H       7.352389      3.146548     -3.665414
  H       8.036668      1.701491     -5.574957
  H       6.356492      0.233907     -6.688219
  H       3.998567      0.204313     -5.873307
  H       3.330698      1.610050     -3.949824
33
Coordinates from ORCA-job Dexketoprofen\Dexketoprofen_PBE_def2-TZVP\Dexketoprofen_PBE_def2-TZVP.orcainp E -843.138043320128
  H       1.298344     -0.159453      0.500341
  C       2.312672     -0.105427      0.064659
  C       3.326326     -0.542510      1.128164
  C       2.280432     -1.079190     -1.113600
  O       1.432174     -0.763819     -2.126238
  O       2.926345     -2.108152     -1.185198
  C       2.535747      1.334161     -0.377600
  C       3.554645      1.662548     -1.282714
  C       3.802556      2.997362     -1.638935
  C       3.020448      4.017852     -1.071604
  C       1.992283      3.699347     -0.188386
  C       1.751009      2.365839      0.157179
  C       4.927003      3.374781     -2.551529
  O       5.525879      4.442019     -2.382420
  C       5.309032      2.464021     -3.672915
  C       6.636488      2.486045     -4.137508
  C       7.022552      1.685101     -5.209651
  C       6.080959      0.870065     -5.849993
  C       4.754958      0.855861     -5.408979
  C       4.370949      1.640543     -4.320026
  H       3.108069     -1.559783      1.478000
  H       3.279679      0.142161      1.985454
  H       4.347862     -0.524870      0.723934
  H       0.989914      0.092570     -1.948393
  H       4.184454      0.872035     -1.697357
  H       3.221573      5.055275     -1.342798
  H       1.371187      4.490624      0.234876
  H       0.945390      2.120537      0.853239
  H       7.360759      3.131377     -3.637691
  H       8.059263      1.694804     -5.550821
  H       6.382257      0.248023     -6.694881
  H       4.014526      0.231768     -5.912213
  H       3.331786      1.631345     -3.988408
33
Coordinates from ORCA-job Dexketoprofen\Dexketoprofen_PBE_def2-TZVP\Dexketoprofen_PBE_def2-TZVP.orcainp E -843.138158794124
  H       1.328403     -0.149080      0.557720
  C       2.320828     -0.102465      0.073733
  C       3.382028     -0.555929      1.082490
  C       2.223398     -1.065059     -1.110086
  O       1.326559     -0.733468     -2.074247
  O       2.860698     -2.094711     -1.226622
  C       2.534907      1.337157     -0.373090
  C       3.555100      1.665407     -1.277192
  C       3.793845      2.999100     -1.642529
  C       3.001387      4.018473     -1.086635
  C       1.971928      3.699661     -0.206008
  C       1.739506      2.366610      0.149220
  C       4.919261      3.377277     -2.553561
  O       5.511954      4.448750     -2.387851
  C       5.312755      2.461663     -3.666709
  C       6.644342      2.483677     -4.119793
  C       7.039985      1.680074     -5.186322
  C       6.103709      0.863021     -5.832422
  C       4.774134      0.848829     -5.402550
  C       4.380447      1.635656     -4.318747
  H       3.177454     -1.577811      1.427478
  H       3.376625      0.117384      1.950025
  H       4.383531     -0.534173      0.631113
  H       0.899198      0.122096     -1.859993
  H       4.191156      0.875864     -1.684380
  H       3.196486      5.054639     -1.367103
  H       1.342319      4.489285      0.207890
  H       0.934175      2.119040      0.844886
  H       7.362060      3.132175     -3.614570
  H       8.079541      1.688971     -5.519003
  H       6.412278      0.239404     -6.673635
  H       4.038560      0.223211     -5.911312
  H       3.338966      1.628136     -3.994206
33
Coordinates from ORCA-job Dexketoprofen\Dexketoprofen_PBE_def2-TZVP\Dexketoprofen_PBE_def2-TZVP.orcainp E -843.138246472070
  H       1.367573     -0.137825      0.621494
  C       2.330927     -0.098466      0.081652
  C       3.443309     -0.575725      1.021974
  C       2.156416     -1.045309     -1.107303
  O       1.212011     -0.689656     -2.015449
  O       2.772006     -2.080903     -1.272186
  C       2.535374      1.342020     -0.367129
  C       3.555732      1.670893     -1.271091
  C       3.783650      3.003333     -1.646227
  C       2.979539      4.020837     -1.102571
  C       1.949362      3.700732     -0.223803
  C       1.728225      2.368191      0.142446
  C       4.907910      3.384098     -2.557689
  O       5.492651      4.461355     -2.397757
  C       5.315545      2.460924     -3.659386
  C       6.650157      2.487883     -4.103477
  C       7.057717      1.677881     -5.160644
  C       6.130290      0.850001     -5.806118
  C       4.797790      0.830856     -5.385109
  C       4.392206      1.623529     -4.309918
  H       3.251410     -1.602759      1.359130
  H       3.491147      0.081457      1.900568
  H       4.418554     -0.552303      0.516462
  H       0.812573      0.170246     -1.767399
  H       4.198958      0.882646     -1.669475
  H       3.167114      5.055894     -1.392234
  H       1.310800      4.487906      0.180993
  H       0.922645      2.118436      0.837105
  H       7.359379      3.145628     -3.598165
  H       8.099299      1.690072     -5.486904
  H       6.448289      0.221267     -6.640033
  H       4.070110      0.196489     -5.894458
  H       3.348855      1.613232     -3.991310
33
Coordinates from ORCA-job Dexketoprofen\Dexketoprofen_PBE_def2-TZVP\Dexketoprofen_PBE_def2-TZVP.orcainp E -843.138298557352
  H       1.412879     -0.127657      0.684698
  C       2.341590     -0.094339      0.087328
  C       3.502652     -0.598595      0.951224
  C       2.082285     -1.024054     -1.101874
  O       1.094518     -0.641284     -1.950940
  O       2.673641     -2.064192     -1.317848
  C       2.535651      1.347788     -0.361606
  C       3.552461      1.677998     -1.269405
  C       3.769752      3.009189     -1.653481
  C       2.956856      4.024440     -1.117830
  C       1.929940      3.702740     -0.235973
  C       1.720996      2.370943      0.141543
  C       4.892725      3.393514     -2.565144
  O       5.464110      4.479596     -2.415135
  C       5.316975      2.462140     -3.653641
  C       6.653936      2.498428     -4.089825
  C       7.076847      1.679134     -5.133771
  C       6.162472      0.832804     -5.773854
  C       4.827410      0.804346     -5.361011
  C       4.406522      1.606244     -4.298522
  H       3.319926     -1.629328      1.282054
  H       3.611087      0.042043      1.836575
  H       4.446781     -0.577948      0.389568
  H       0.725563      0.222907     -1.672615
  H       4.200842      0.891090     -1.661702
  H       3.136882      5.058818     -1.414505
  H       1.285849      4.487595      0.164429
  H       0.918651      2.120185      0.839612
  H       7.352660      3.170199     -3.588375
  H       8.120201      1.698220     -5.453936
  H       6.492707      0.196376     -6.597095
  H       4.110697      0.155062     -5.866990
  H       3.361456      1.588454     -3.985966
33
Coordinates from ORCA-job Dexketoprofen\Dexketoprofen_PBE_def2-TZVP\Dexketoprofen_PBE_def2-TZVP.orcainp E -843.138298902598
  H       1.437253     -0.121862      0.714555
  C       2.347104     -0.091753      0.088586
  C       3.529433     -0.609502      0.914088
  C       2.042838     -1.014212     -1.096747
  O       1.019566     -0.630410     -1.902084
  O       2.617741     -2.059194     -1.333961
  C       2.536154      1.350979     -0.361138
  C       3.547540      1.682172     -1.275007
  C       3.760559      3.013118     -1.661899
  C       2.946956      4.027242     -1.125149
  C       1.924821      3.704600     -0.237989
  C       1.721627      2.373163      0.144117
  C       4.882063      3.400206     -2.574404
  O       5.448190      4.489259     -2.426957
  C       5.317618      2.464480     -3.654822
  C       6.656713      2.506332     -4.083504
  C       7.091049      1.682556     -5.119314
  C       6.186149      0.826014     -5.758802
  C       4.848784      0.791925     -5.353712
  C       4.416538      1.598180     -4.298997
  H       3.348181     -1.640120      1.245907
  H       3.670123      0.025310      1.798994
  H       4.456914     -0.595380      0.325256
  H       0.659047      0.232023     -1.607351
  H       4.195714      0.895828     -1.668241
  H       3.123486      5.061840     -1.422954
  H       1.281514      4.488764      0.164876
  H       0.924390      2.123331      0.848339
  H       7.348874      3.185783     -3.583330
  H       8.136045      1.706468     -5.433639
  H       6.525376      0.185902     -6.575457
  H       4.139640      0.134655     -5.859873
  H       3.369521      1.575164     -3.993395
33
Coordinates from ORCA-job Dexketoprofen\Dexketoprofen_PBE_def2-TZVP\Dexketoprofen_PBE_def2-TZVP.orcainp E -843.138319911104
  H       1.425206     -0.122396      0.706068
  C       2.343063     -0.092681      0.091571
  C       3.514960     -0.604783      0.934966
  C       2.054451     -1.020954     -1.092670
  O       1.042091     -0.642011     -1.913761
  O       2.641754     -2.060502     -1.324239
  C       2.535044      1.348758     -0.360916
  C       3.546909      1.678235     -1.274954
  C       3.763509      3.009000     -1.661116
  C       2.952476      4.024550     -1.123447
  C       1.929273      3.703611     -0.236782
  C       1.722755      2.372645      0.144548
  C       4.887091      3.394827     -2.571778
  O       5.453749      4.483274     -2.423149
  C       5.318827      2.462683     -3.656970
  C       6.657469      2.503773     -4.087084
  C       7.088977      1.684934     -5.127985
  C       6.181703      0.834138     -5.771534
  C       4.844756      0.800734     -5.365046
  C       4.415403      1.601796     -4.305087
  H       3.329286     -1.632872      1.272085
  H       3.644388      0.036292      1.817066
  H       4.449838     -0.595203      0.357935
  H       0.670805      0.217862     -1.624497
  H       4.193159      0.890760     -1.668958
  H       3.131203      5.059135     -1.419957
  H       1.287850      4.489150      0.166409
  H       0.925122      2.125098      0.849122
  H       7.352192      3.178884     -3.584592
  H       8.133689      1.708711     -5.443251
  H       6.518567      0.198191     -6.592396
  H       4.133500      0.148312     -5.874466
  H       3.368453      1.578910     -3.999143
33
Coordinates from ORCA-job Dexketoprofen\Dexketoprofen_PBE_def2-TZVP\Dexketoprofen_PBE_def2-TZVP.orcainp E -843.138324691416
  H       1.419041     -0.123269      0.698252
  C       2.341705     -0.092672      0.090866
  C       3.507468     -0.601997      0.944088
  C       2.063465     -1.022605     -1.094113
  O       1.051380     -0.651523     -1.918802
  O       2.659751     -2.057450     -1.324192
  C       2.535041      1.348359     -0.361665
  C       3.547116      1.677598     -1.275346
  C       3.765506      3.008446     -1.660418
  C       2.955903      4.024458     -1.121513
  C       1.932537      3.703834     -0.234878
  C       1.724344      2.372833      0.145217
  C       4.889270      3.393650     -2.571127
  O       5.457136      4.481286     -2.421858
  C       5.319021      2.462298     -3.657823
  C       6.657534      2.502220     -4.088513
  C       7.087564      1.684935     -5.131251
  C       6.178920      0.836760     -5.776337
  C       4.842157      0.804350     -5.369092
  C       4.414352      1.603858     -4.307313
  H       3.318926     -1.628703      1.284045
  H       3.630402      0.042514      1.824681
  H       4.446623     -0.595101      0.373950
  H       0.669433      0.203605     -1.629677
  H       4.191970      0.889623     -1.670842
  H       3.135148      5.059200     -1.417203
  H       1.291735      4.489785      0.168593
  H       0.926373      2.126087      0.849696
  H       7.353877      3.175149     -3.585328
  H       8.132294      1.708024     -5.446607
  H       6.514451      0.202186     -6.598831
  H       4.129647      0.154038     -5.879542
  H       3.367432      1.581085     -4.001126
33
Coordinates from ORCA-job Dexketoprofen\Dexketoprofen_PBE_def2-TZVP\Dexketoprofen_PBE_def2-TZVP.orcainp E -843.138331003345
  H       1.417830     -0.123351      0.695212
  C       2.341593     -0.091749      0.089457
  C       3.505869     -0.601323      0.943979
  C       2.066000     -1.019965     -1.097019
  O       1.041878     -0.660944     -1.911552
  O       2.678073     -2.042926     -1.339317
  C       2.535094      1.349225     -0.362457
  C       3.546478      1.678493     -1.276570
  C       3.766014      3.009362     -1.660988
  C       2.957554      4.025628     -1.120756
  C       1.934961      3.705067     -0.233207
  C       1.726132      2.374038      0.146479
  C       4.889649      3.394059     -2.572019
  O       5.456818      4.482140     -2.424115
  C       5.319454      2.462080     -3.658185
  C       6.658411      2.501129     -4.087688
  C       7.089143      1.684049     -5.130307
  C       6.180709      0.836763     -5.776930
  C       4.843612      0.804997     -5.370618
  C       4.415232      1.604305     -4.308899
  H       3.314375     -1.626350      1.287672
  H       3.629341      0.045964      1.822558
  H       4.445605     -0.599153      0.374771
  H       0.643017      0.182731     -1.612520
  H       4.189849      0.890048     -1.673799
  H       3.136338      5.060580     -1.416007
  H       1.294591      4.491241      0.170622
  H       0.928561      2.128260      0.851756
  H       7.355440      3.172999     -3.584022
  H       8.134411      1.706749     -5.444011
  H       6.516460      0.202560     -6.599640
  H       4.131084      0.155367     -5.882005
  H       3.367942      1.580787     -4.003887
33
Coordinates from ORCA-job Dexketoprofen\Dexketoprofen_PBE_def2-TZVP\Dexketoprofen_PBE_def2-TZVP.orcainp E -843.138339361450
  H       1.416504     -0.123431      0.691056
  C       2.341253     -0.090605      0.087004
  C       3.504734     -0.600886      0.941897
  C       2.069907     -1.014873     -1.103060
  O       1.027282     -0.672496     -1.900643
  O       2.702689     -2.020730     -1.363758
  C       2.535376      1.350757     -0.363445
  C       3.546300      1.680078     -1.277809
  C       3.766800      3.011077     -1.661429
  C       2.959439      4.027503     -1.119770
  C       1.937511      3.706875     -0.231525
  C       1.727823      2.375696      0.147269
  C       4.889747      3.395226     -2.573388
  O       5.456460      4.483764     -2.427233
  C       5.319941      2.462026     -3.658366
  C       6.659416      2.499900     -4.086473
  C       7.090954      1.682190     -5.128267
  C       6.182758      0.835251     -5.775799
  C       4.845277      0.804543     -5.370695
  C       4.416161      1.604476     -4.309727
  H       3.310968     -1.624710      1.288191
  H       3.629040      0.048301      1.819042
  H       4.444516     -0.602140      0.372897
  H       0.607963      0.155193     -1.585913
  H       4.188648      0.891369     -1.676278
  H       3.138043      5.062662     -1.414415
  H       1.297793      4.493210      0.173075
  H       0.930493      2.130407      0.852981
  H       7.356832      3.171232     -3.582614
  H       8.136759      1.704262     -5.440251
  H       6.518824      0.200707     -6.598114
  H       4.132809      0.155142     -5.882502
  H       3.368499      1.580883     -4.005947
33
Coordinates from ORCA-job Dexketoprofen\Dexketoprofen_PBE_def2-TZVP\Dexketoprofen_PBE_def2-TZVP.orcainp E -843.138366512519
  H       1.417636     -0.122268      0.685615
  C       2.341068     -0.087306      0.080305
  C       3.507550     -0.602832      0.927597
  C       2.072901     -0.997431     -1.120618
  O       0.980291     -0.697256     -1.865905
  O       2.754357     -1.954326     -1.437749
  C       2.536651      1.355768     -0.365438
  C       3.546905      1.685496     -1.279981
  C       3.768155      3.016813     -1.662504
  C       2.962093      4.033153     -1.118523
  C       1.941574      3.711943     -0.229000
  C       1.730841      2.380331      0.148104
  C       4.888674      3.400064     -2.577381
  O       5.452786      4.490839     -2.437266
  C       5.321259      2.462682     -3.657839
  C       6.661973      2.498436     -4.082473
  C       7.096480      1.676834     -5.119962
  C       6.189943      0.827640     -5.767158
  C       4.851481      0.798939     -5.365295
  C       4.419435      1.602925     -4.308553
  H       3.310609     -1.625370      1.276564
  H       3.639262      0.046997      1.803335
  H       4.443808     -0.609416      0.353246
  H       0.516100      0.085743     -1.504194
  H       4.187971      0.896633     -1.680217
  H       3.139889      5.068665     -1.412431
  H       1.302712      4.498233      0.177119
  H       0.933834      2.135179      0.854216
  H       7.358932      3.170887     -3.579449
  H       8.143488      1.697750     -5.427992
  H       6.527800      0.190113     -6.586416
  H       4.140115      0.147530     -5.876162
  H       3.370946      1.579471     -4.007606
33
Coordinates from ORCA-job Dexketoprofen\Dexketoprofen_PBE_def2-TZVP\Dexketoprofen_PBE_def2-TZVP.orcainp E -843.138367150031
  H       1.420034     -0.119978      0.684704
  C       2.340561     -0.084863      0.075893
  C       3.511799     -0.605687      0.913667
  C       2.072203     -0.981752     -1.134797
  O       0.942554     -0.714102     -1.836090
  O       2.786670     -1.896589     -1.499781
  C       2.537719      1.359856     -0.366544
  C       3.548319      1.689668     -1.280653
  C       3.769064      3.021173     -1.663199
  C       2.962918      4.037281     -1.118854
  C       1.942679      3.715707     -0.229192
  C       1.731525      2.383851      0.147050
  C       4.887804      3.404013     -2.580092
  O       5.449970      4.496543     -2.444419
  C       5.322611      2.463396     -3.656942
  C       6.664187      2.497627     -4.079035
  C       7.100768      1.672126     -5.112546
  C       6.195484      0.820425     -5.758294
  C       4.856232      0.793438     -5.359186
  C       4.421981      1.601379     -4.306334
  H       3.315362     -1.629270      1.260191
  H       3.650369      0.040827      1.790796
  H       4.443722     -0.611454      0.332631
  H       0.452050      0.032551     -1.434446
  H       4.189771      0.901088     -1.680481
  H       3.140772      5.072785     -1.412737
  H       1.304152      4.501824      0.177755
  H       0.934189      2.137818      0.852458
  H       7.359914      3.171963     -3.576825
  H       8.148428      1.691975     -5.418342
  H       6.534934      0.179665     -6.574341
  H       4.145823      0.139990     -5.868752
  H       3.372949      1.579584     -4.007275
33
Coordinates from ORCA-job Dexketoprofen\Dexketoprofen_PBE_def2-TZVP\Dexketoprofen_PBE_def2-TZVP.orcainp E -843.138381042899
  H       1.417256     -0.120728      0.682527
  C       2.340134     -0.086836      0.077466
  C       3.508688     -0.603997      0.922110
  C       2.078184     -0.988293     -1.131834
  O       0.965845     -0.704552     -1.855176
  O       2.780293     -1.920677     -1.474887
  C       2.537711      1.357731     -0.366519
  C       3.550123      1.687533     -1.278926
  C       3.770160      3.019131     -1.661456
  C       2.962701      4.035005     -1.118903
  C       1.940539      3.713358     -0.231374
  C       1.729318      2.381464      0.144413
  C       4.889940      3.402432     -2.576904
  O       5.454680      4.493334     -2.437894
  C       5.322426      2.463476     -3.656088
  C       6.662943      2.497441     -4.081336
  C       7.095937      1.672453     -5.116768
  C       6.188201      0.821952     -5.760548
  C       4.849801      0.795581     -5.358623
  C       4.418996      1.602940     -4.304011
  H       3.316271     -1.630144      1.262856
  H       3.639219      0.039627      1.802420
  H       4.443697     -0.601410      0.345925
  H       0.491065      0.061682     -1.471517
  H       4.193581      0.899597     -1.676495
  H       3.142112      5.070248     -1.412739
  H       1.301484      4.499247      0.175061
  H       0.930673      2.133870      0.847783
  H       7.359232      3.171523     -3.579584
  H       8.142484      1.691573     -5.426287
  H       6.525417      0.181331     -6.577618
  H       4.137612      0.143258     -5.867033
  H       3.370795      1.583710     -4.002052
33
Coordinates from ORCA-job Dexketoprofen\Dexketoprofen_PBE_def2-TZVP\Dexketoprofen_PBE_def2-TZVP.orcainp E -843.138384419446
  H       1.419781     -0.117976      0.692553
  C       2.339472     -0.087420      0.082218
  C       3.510458     -0.605324      0.922693
  C       2.067226     -0.993033     -1.122037
  O       0.960636     -0.698027     -1.850128
  O       2.757183     -1.937110     -1.457508
  C       2.536797      1.356036     -0.365737
  C       3.548175      1.684704     -1.279912
  C       3.768053      3.015944     -1.663819
  C       2.960740      4.032336     -1.122206
  C       1.939004      3.711799     -0.233697
  C       1.728818      2.380563      0.144528
  C       4.889652      3.399915     -2.577089
  O       5.453499      4.490880     -2.436073
  C       5.323795      2.462828     -3.657341
  C       6.664277      2.499847     -4.082147
  C       7.098874      1.677277     -5.118865
  C       6.192859      0.826433     -5.764222
  C       4.854280      0.797010     -5.362945
  C       4.421864      1.601807     -4.306988
  H       3.319080     -1.631702      1.263119
  H       3.644693      0.037113      1.803242
  H       4.443642     -0.602847      0.343406
  H       0.497936      0.079558     -1.474373
  H       4.191395      0.896354     -1.676972
  H       3.140524      5.067275     -1.416846
  H       1.300393      4.498173      0.172475
  H       0.931380      2.134091      0.849667
  H       7.359087      3.174608     -3.579270
  H       8.145284      1.698705     -5.428701
  H       6.531627      0.187698     -6.582132
  H       4.143535      0.144632     -5.873235
  H       3.373500      1.580711     -4.005670
33
Coordinates from ORCA-job Dexketoprofen\Dexketoprofen_PBE_def2-TZVP\Dexketoprofen_PBE_def2-TZVP.orcainp E -843.138385521382
  H       1.419378     -0.116453      0.693683
  C       2.338661     -0.087099      0.082749
  C       3.509867     -0.605229      0.922673
  C       2.065930     -0.992460     -1.121592
  O       0.954035     -0.702522     -1.843854
  O       2.760080     -1.931430     -1.462464
  C       2.536676      1.356126     -0.366211
  C       3.548227      1.684271     -1.280316
  C       3.768492      3.015456     -1.664279
  C       2.961340      4.032146     -1.123044
  C       1.939322      3.712063     -0.234658
  C       1.728880      2.380978      0.143792
  C       4.890591      3.399421     -2.577011
  O       5.454772      4.490090     -2.435155
  C       5.324860      2.462816     -3.657664
  C       6.665376      2.500103     -4.082267
  C       7.100061      1.678001     -5.119326
  C       6.194131      0.827455     -5.765115
  C       4.855466      0.797742     -5.364062
  C       4.422941      1.602072     -4.307796
  H       3.319189     -1.632185      1.261815
  H       3.643996      0.036081      1.804049
  H       4.442998     -0.601548      0.343277
  H       0.488247      0.071043     -1.463598
  H       4.191260      0.895708     -1.677261
  H       3.141587      5.066940     -1.417900
  H       1.300812      4.498646      0.171282
  H       0.931416      2.134745      0.848994
  H       7.359963      3.174740     -3.578917
  H       8.146452      1.699502     -5.429251
  H       6.533101      0.189053     -6.583215
  H       4.144859      0.145587     -5.874835
  H       3.374556      1.581004     -4.006534
33
Coordinates from ORCA-job Dexketoprofen\Dexketoprofen_PBE_def2-TZVP\Dexketoprofen_PBE_def2-TZVP.orcainp E -843.138385901343
  H       1.419014     -0.115441      0.694014
  C       2.338340     -0.086929      0.083127
  C       3.509308     -0.605227      0.923199
  C       2.065668     -0.992263     -1.121193
  O       0.952045     -0.704042     -1.841657
  O       2.761148     -1.929539     -1.463755
  C       2.536909      1.356083     -0.366328
  C       3.548869      1.683921     -1.279947
  C       3.769201      3.015035     -1.664078
  C       2.961718      4.031882     -1.123635
  C       1.939146      3.712036     -0.235762
  C       1.728684      2.381035      0.142911
  C       4.891667      3.398978     -2.576454
  O       5.456473      4.489195     -2.433592
  C       5.325577      2.462836     -3.657633
  C       6.665936      2.500365     -4.082714
  C       7.100202      1.678591     -5.120201
  C       6.194008      0.828197     -5.765829
  C       4.855472      0.798203     -5.364261
  C       4.423378      1.602232     -4.307616
  H       3.319630     -1.633129      1.260106
  H       3.642034      0.034426      1.805998
  H       4.443006     -0.599325      0.344692
  H       0.485417      0.068291     -1.459907
  H       4.191952      0.895249     -1.676649
  H       3.142094      5.066528     -1.418943
  H       1.300145      4.498644      0.169376
  H       0.930825      2.134807      0.847677
  H       7.360535      3.174920     -3.579273
  H       8.146430      1.700047     -5.430708
  H       6.532749      0.190053     -6.584241
  H       4.144772      0.146098     -5.874989
  H       3.375167      1.581101     -4.005746
