33
Coordinates from ORCA-job Ibuprofeno\Ibuprofeno_PBE_6-311+G\Ibuprofeno_PBE_6-311+G.orcainp E -656.055431153687
  C       2.675690      1.765150      3.505570
  C       2.369440      0.527300      2.660060
  C       0.853040      0.352390      2.531840
  C       3.012800      0.619580      1.262930
  C       4.523080      0.732870      1.261520
  C       5.325880     -0.263850      1.830750
  C       6.721380     -0.183020      1.760210
  C       7.347760      0.887500      1.103400
  C       6.538770      1.903120      0.570060
  C       5.144550      1.826240      0.648810
  C       8.859350      0.876260      0.894160
  C       9.169890      0.867970     -0.608440
  C       9.678300      1.971180      1.572970
  O       9.020530      2.789260      2.420480
  O      10.882370      2.102660      1.393150
  H       2.204980      1.685590      4.490920
  H       2.304980      2.675540      3.023360
  H       3.751990      1.879740      3.667750
  H       2.760940     -0.351840      3.186200
  H       0.400840      1.179480      1.973450
  H       0.380240      0.314730      3.519180
  H       0.610400     -0.580070      2.011090
  H       2.581370      1.474690      0.724970
  H       2.745680     -0.267330      0.672430
  H       4.870920     -1.129100      2.308410
  H       7.309580     -0.991920      2.190260
  H       6.980780      2.754480      0.053610
  H       4.547730      2.614970      0.199000
  H       9.245090     -0.060910      1.319030
  H       8.795070      1.769900     -1.106040
  H       8.710910      0.001180     -1.097520
  H      10.247760      0.826250     -0.793960
  H       8.069260      2.590220      2.530770
33
Coordinates from ORCA-job Ibuprofeno\Ibuprofeno_PBE_6-311+G\Ibuprofeno_PBE_6-311+G.orcainp E -656.058107481120
  C       2.678859      1.790525      3.525789
  C       2.366569      0.545067      2.683079
  C       0.847261      0.341985      2.568298
  C       2.995701      0.632859      1.275575
  C       4.510129      0.733097      1.240649
  C       5.318920     -0.279693      1.783448
  C       6.715598     -0.209389      1.697135
  C       7.348301      0.868193      1.053564
  C       6.539471      1.891055      0.527054
  C       5.142639      1.825792      0.625411
  C       8.863676      0.871012      0.878429
  C       9.252866      0.859855     -0.615019
  C       9.630016      1.979245      1.608589
  O       8.930984      2.784899      2.433187
  O      10.833753      2.145362      1.487654
  H       2.219286      1.710132      4.523538
  H       2.287665      2.701376      3.042623
  H       3.762316      1.920853      3.670808
  H       2.781887     -0.336021      3.203466
  H       0.376525      1.173547      2.018029
  H       0.381485      0.290415      3.565095
  H       0.609230     -0.593927      2.036787
  H       2.560712      1.497834      0.745889
  H       2.701501     -0.259120      0.692578
  H       4.860621     -1.145709      2.268824
  H       7.311141     -1.021769      2.123714
  H       6.989405      2.750740      0.021346
  H       4.542506      2.633353      0.197802
  H       9.247361     -0.062288      1.327322
  H       8.891268      1.761066     -1.132701
  H       8.819646     -0.016445     -1.117996
  H      10.344511      0.821286     -0.741742
  H       7.979539      2.555024      2.462156
33
Coordinates from ORCA-job Ibuprofeno\Ibuprofeno_PBE_6-311+G\Ibuprofeno_PBE_6-311+G.orcainp E -656.059003864945
  C       2.693176      1.833870      3.517549
  C       2.378573      0.569346      2.702947
  C       0.861446      0.334678      2.615038
  C       2.985150      0.634903      1.282451
  C       4.497745      0.724614      1.214556
  C       5.311913     -0.296515      1.741025
  C       6.707165     -0.233551      1.642488
  C       7.343181      0.848356      1.006493
  C       6.533099      1.873728      0.481883
  C       5.136322      1.813304      0.592741
  C       8.858064      0.867491      0.860358
  C       9.313196      0.882522     -0.616636
  C       9.570515      1.976945      1.648046
  O       8.832836      2.722746      2.499070
  O      10.773179      2.174713      1.582767
  H       2.253705      1.767794      4.527131
  H       2.275546      2.729965      3.023555
  H       3.778716      1.986425      3.633910
  H       2.822604     -0.299025      3.226867
  H       0.368761      1.158041      2.067278
  H       0.411684      0.282283      3.620726
  H       0.629120     -0.607584      2.089627
  H       2.546395      1.499541      0.751772
  H       2.666553     -0.266201      0.723854
  H       4.852304     -1.161460      2.230350
  H       7.310090     -1.046275      2.061181
  H       6.987647      2.731193     -0.026177
  H       4.532736      2.626196      0.175436
  H       9.243342     -0.064358      1.315357
  H       8.959681      1.788799     -1.133097
  H       8.905629      0.006062     -1.141553
  H      10.410659      0.852110     -0.688131
  H       7.890621      2.449554      2.451518
33
Coordinates from ORCA-job Ibuprofeno\Ibuprofeno_PBE_6-311+G\Ibuprofeno_PBE_6-311+G.orcainp E -656.059197000630
  C       2.720476      1.875379      3.487528
  C       2.397042      0.589761      2.712446
  C       0.882047      0.340062      2.658752
  C       2.978620      0.623409      1.279286
  C       4.487702      0.703272      1.188975
  C       5.302607     -0.324479      1.703780
  C       6.696401     -0.263704      1.604258
  C       7.334563      0.824699      0.980038
  C       6.524688      1.853522      0.460021
  C       5.128850      1.792514      0.570706
  C       8.848987      0.859606      0.857439
  C       9.343278      0.921308     -0.604706
  C       9.524633      1.953940      1.699360
  O       8.750505      2.665041      2.553109
  O      10.715298      2.215163      1.625631
  H       2.306397      1.832628      4.508506
  H       2.281172      2.753707      2.981124
  H       3.806882      2.042100      3.569637
  H       2.861632     -0.262158      3.245483
  H       0.373075      1.152127      2.109399
  H       0.452333      0.299629      3.673218
  H       0.647079     -0.609970      2.150459
  H       2.538078      1.482355      0.741177
  H       2.641800     -0.286769      0.748255
  H       4.840942     -1.191421      2.187120
  H       7.303072     -1.078022      2.013496
  H       6.982543      2.712324     -0.041928
  H       4.523744      2.607943      0.161221
  H       9.237869     -0.076822      1.299513
  H       8.992859      1.838575     -1.102270
  H       8.955066      0.054940     -1.159447
  H      10.441752      0.899797     -0.641149
  H       7.819356      2.359755      2.459943
33
Coordinates from ORCA-job Ibuprofeno\Ibuprofeno_PBE_6-311+G\Ibuprofeno_PBE_6-311+G.orcainp E -656.059463582307
  C       2.753396      1.916967      3.440259
  C       2.417189      0.606888      2.715240
  C       0.903229      0.353478      2.699983
  C       2.972704      0.597377      1.270663
  C       4.478689      0.674353      1.163799
  C       5.296668     -0.351927      1.675971
  C       6.689432     -0.284652      1.579459
  C       7.323137      0.810020      0.961187
  C       6.509247      1.835228      0.440415
  C       5.114610      1.765894      0.546337
  C       8.837674      0.863978      0.854521
  C       9.347895      0.972452     -0.597693
  C       9.489523      1.943564      1.734318
  O       8.703513      2.577870      2.639678
  O      10.678098      2.221316      1.682249
  H       2.366567      1.906045      4.471863
  H       2.296720      2.775776      2.917802
  H       3.840577      2.090835      3.486611
  H       2.896087     -0.225406      3.264661
  H       0.381441      1.149926      2.141348
  H       0.494846      0.338470      3.723177
  H       0.660591     -0.608751      2.220914
  H       2.526709      1.442206      0.716202
  H       2.626246     -0.326233      0.772178
  H       4.837172     -1.221324      2.155846
  H       7.300997     -1.095958      1.985937
  H       6.964827      2.697552     -0.056084
  H       4.505355      2.578118      0.138344
  H       9.234249     -0.077968      1.276954
  H       8.994069      1.899451     -1.072714
  H       8.974406      0.117960     -1.179583
  H      10.446074      0.962145     -0.618901
  H       7.779413      2.254557      2.529438
33
Coordinates from ORCA-job Ibuprofeno\Ibuprofeno_PBE_6-311+G\Ibuprofeno_PBE_6-311+G.orcainp E -656.059592502409
  C       2.781117      1.964442      3.384532
  C       2.435625      0.626612      2.717340
  C       0.922787      0.371579      2.738880
  C       2.968350      0.562957      1.264083
  C       4.472530      0.641136      1.145437
  C       5.294047     -0.385291      1.650149
  C       6.686365     -0.309613      1.555909
  C       7.313663      0.794513      0.947653
  C       6.495071      1.818964      0.433688
  C       5.101481      1.739867      0.534980
  C       8.828330      0.866692      0.851475
  C       9.347025      1.029245     -0.591609
  C       9.460119      1.924154      1.772162
  O       8.665611      2.481085      2.721362
  O      10.638946      2.239426      1.721131
  H       2.419169      1.991210      4.424464
  H       2.308208      2.800706      2.841280
  H       3.868266      2.143778      3.397457
  H       2.926876     -0.182026      3.289660
  H       0.388951      1.148455      2.165091
  H       0.533514      0.388912      3.769208
  H       0.674026     -0.605751      2.295577
  H       2.514702      1.386692      0.685376
  H       2.617066     -0.378179      0.804693
  H       4.837486     -1.260811      2.121210
  H       7.303178     -1.120389      1.954876
  H       6.947310      2.688824     -0.051729
  H       4.487347      2.549869      0.130777
  H       9.233341     -0.083443      1.246840
  H       8.989477      1.968647     -1.037961
  H       8.986078      0.191981     -1.205464
  H      10.445115      1.029612     -0.604128
  H       7.750173      2.136353      2.605981
33
Coordinates from ORCA-job Ibuprofeno\Ibuprofeno_PBE_6-311+G\Ibuprofeno_PBE_6-311+G.orcainp E -656.059686748617
  C       2.804136      2.019900      3.316682
  C       2.452741      0.650973      2.718193
  C       0.941204      0.395216      2.776527
  C       2.964577      0.517700      1.260144
  C       4.467520      0.602628      1.131457
  C       5.294546     -0.423656      1.624880
  C       6.686793     -0.335686      1.532511
  C       7.304261      0.781369      0.937702
  C       6.478660      1.804938      0.434395
  C       5.086238      1.713223      0.532227
  C       8.819210      0.871989      0.846225
  C       9.339447      1.094219     -0.587074
  C       9.436684      1.900217      1.810035
  O       8.648637      2.358231      2.815982
  O      10.597182      2.272276      1.744391
  H       2.463149      2.092442      4.361457
  H       2.317076      2.829104      2.745944
  H       3.890786      2.202400      3.299930
  H       2.955864     -0.127852      3.320445
  H       0.394948      1.147312      2.182114
  H       0.569925      0.452342      3.812072
  H       0.688266     -0.599706      2.376699
  H       2.498847      1.309141      0.647319
  H       2.614099     -0.446827      0.852772
  H       4.842748     -1.307897      2.084170
  H       7.310605     -1.146568      1.920236
  H       6.925326      2.685010     -0.036983
  H       4.465241      2.520297      0.133014
  H       9.233224     -0.088366      1.207148
  H       8.979281      2.048319     -0.998989
  H       8.987819      0.279975     -1.236425
  H      10.437634      1.103586     -0.596534
  H       7.744678      1.983960      2.711715
33
Coordinates from ORCA-job Ibuprofeno\Ibuprofeno_PBE_6-311+G\Ibuprofeno_PBE_6-311+G.orcainp E -656.059755587010
  C       2.787661      2.024824      3.316933
  C       2.444243      0.653203      2.719068
  C       0.931952      0.396522      2.766810
  C       2.966500      0.510370      1.264820
  C       4.470801      0.601689      1.138889
  C       5.299666     -0.425344      1.626751
  C       6.692675     -0.333926      1.534344
  C       7.307912      0.786413      0.943476
  C       6.480221      1.811751      0.446857
  C       5.087387      1.718046      0.546401
  C       8.824084      0.873707      0.843079
  C       9.334877      1.091174     -0.593819
  C       9.454139      1.900921      1.800299
  O       8.684720      2.348863      2.823192
  O      10.608394      2.286112      1.711558
  H       2.434075      2.099548      4.357603
  H       2.307050      2.832541      2.738324
  H       3.873608      2.207751      3.314457
  H       2.943067     -0.122615      3.329168
  H       0.389136      1.146341      2.166130
  H       0.553130      0.456155      3.799657
  H       0.682912     -0.600227      2.368268
  H       2.497529      1.292197      0.641974
  H       2.624279     -0.461095      0.866813
  H       4.849337     -1.313212      2.080740
  H       7.317392     -1.146968      1.916472
  H       6.925022      2.694841     -0.020814
  H       4.465035      2.525806      0.150360
  H       9.235926     -0.088517      1.202430
  H       8.978466      2.046977     -1.005692
  H       8.975645      0.278640     -1.241318
  H      10.433280      1.095583     -0.612329
  H       7.781229      1.972139      2.739477
33
Coordinates from ORCA-job Ibuprofeno\Ibuprofeno_PBE_6-311+G\Ibuprofeno_PBE_6-311+G.orcainp E -656.059834305160
  C       2.772286      2.052132      3.295051
  C       2.442493      0.666821      2.721160
  C       0.931750      0.396947      2.768343
  C       2.969949      0.495027      1.272072
  C       4.473528      0.595784      1.145320
  C       5.305941     -0.434759      1.618956
  C       6.699003     -0.339492      1.522964
  C       7.309989      0.789464      0.944881
  C       6.479203      1.820284      0.464606
  C       5.086728      1.722473      0.566583
  C       8.825550      0.876551      0.835117
  C       9.332271      1.098655     -0.601420
  C       9.455780      1.897916      1.798255
  O       8.708864      2.289268      2.859637
  O      10.589981      2.331611      1.680411
  H       2.409599      2.142458      4.331742
  H       2.289763      2.846088      2.698449
  H       3.857121      2.243554      3.298890
  H       2.946628     -0.093570      3.347382
  H       0.384271      1.133725      2.155204
  H       0.549683      0.468219      3.799502
  H       0.692092     -0.607845      2.383470
  H       2.492788      1.255458      0.628669
  H       2.638052     -0.491323      0.902556
  H       4.857696     -1.328855      2.063303
  H       7.326745     -1.156328      1.892565
  H       6.921974      2.709666      0.006406
  H       4.461363      2.533939      0.182181
  H       9.236376     -0.088507      1.189699
  H       8.979923      2.058500     -1.008247
  H       8.968012      0.291233     -1.252692
  H      10.430896      1.098680     -0.624192
  H       7.815053      1.886435      2.793555
33
Coordinates from ORCA-job Ibuprofeno\Ibuprofeno_PBE_6-311+G\Ibuprofeno_PBE_6-311+G.orcainp E -656.059901339569
  C       2.759078      2.075990      3.272600
  C       2.441589      0.679149      2.721319
  C       0.932629      0.397185      2.768457
  C       2.974010      0.483251      1.277745
  C       4.476244      0.591959      1.150876
  C       5.311190     -0.443512      1.608498
  C       6.704119     -0.345163      1.510350
  C       7.311641      0.793243      0.948523
  C       6.478769      1.830579      0.486197
  C       5.086993      1.729092      0.588854
  C       8.826347      0.881497      0.830403
  C       9.326461      1.098124     -0.607721
  C       9.452769      1.906510      1.790647
  O       8.738843      2.227591      2.897533
  O      10.557281      2.401700      1.635934
  H       2.386973      2.180959      4.304730
  H       2.276131      2.856910      2.659151
  H       3.842854      2.274863      3.282832
  H       2.950309     -0.066982      3.361473
  H       0.381348      1.121224      2.143475
  H       0.547603      0.479992      3.797702
  H       0.701536     -0.614728      2.397234
  H       2.490293      1.224512      0.616917
  H       2.652452     -0.515261      0.932441
  H       4.864385     -1.343875      2.041687
  H       7.333602     -1.166342      1.867320
  H       6.920291      2.727130      0.040468
  H       4.459704      2.545962      0.219060
  H       9.237938     -0.082646      1.187786
  H       8.973425      2.057268     -1.016019
  H       8.958603      0.289345     -1.255346
  H      10.425055      1.097462     -0.636772
  H       7.860884      1.787225      2.856024
33
Coordinates from ORCA-job Ibuprofeno\Ibuprofeno_PBE_6-311+G\Ibuprofeno_PBE_6-311+G.orcainp E -656.059971026485
  C       2.754213      2.099064      3.245803
  C       2.444488      0.691442      2.719943
  C       0.937508      0.400087      2.773981
  C       2.976373      0.472823      1.279918
  C       4.476901      0.586440      1.150888
  C       5.313724     -0.454798      1.591039
  C       6.706405     -0.353116      1.492994
  C       7.310796      0.795509      0.950330
  C       6.476404      1.839331      0.506121
  C       5.085626      1.733707      0.607172
  C       8.824827      0.889422      0.829700
  C       9.321170      1.094868     -0.609699
  C       9.436656      1.926202      1.784066
  O       8.768651      2.155019      2.942751
  O      10.493829      2.503859      1.588037
  H       2.377444      2.220866      4.274370
  H       2.269908      2.866557      2.616849
  H       3.837270      2.303397      3.256609
  H       2.959005     -0.040572      3.371733
  H       0.381285      1.110532      2.138014
  H       0.553706      0.497345      3.802314
  H       0.712092     -0.618934      2.419738
  H       2.487326      1.197920      0.605347
  H       2.661865     -0.534792      0.955473
  H       4.868047     -1.361850      2.011111
  H       7.337032     -1.178715      1.837293
  H       6.917184      2.743726      0.075563
  H       4.456849      2.556250      0.253019
  H       9.239681     -0.069747      1.197254
  H       8.962147      2.048690     -1.025104
  H       8.955225      0.278856     -1.249258
  H      10.419615      1.099411     -0.642642
  H       7.918101      1.661410      2.929653
33
Coordinates from ORCA-job Ibuprofeno\Ibuprofeno_PBE_6-311+G\Ibuprofeno_PBE_6-311+G.orcainp E -656.060053473283
  C       2.744191      2.101104      3.246616
  C       2.441349      0.693394      2.719003
  C       0.935441      0.397239      2.768865
  C       2.977413      0.480084      1.279986
  C       4.477857      0.592297      1.149583
  C       5.313548     -0.455869      1.575722
  C       6.706521     -0.356032      1.478842
  C       7.312940      0.798478      0.952248
  C       6.480288      1.849315      0.521672
  C       5.089491      1.744613      0.620187
  C       8.827702      0.895864      0.834826
  C       9.320871      1.066220     -0.609233
  C       9.424353      1.961884      1.763113
  O       8.807757      2.132837      2.961280
  O      10.430638      2.608568      1.519448
  H       2.359615      2.222502      4.272143
  H       2.262592      2.866962      2.614037
  H       3.825893      2.308807      3.264714
  H       2.956294     -0.037958      3.370727
  H       0.379590      1.104278      2.129138
  H       0.548219      0.496238      3.795539
  H       0.714130     -0.623080      2.416807
  H       2.489315      1.207460      0.607480
  H       2.665232     -0.526530      0.950468
  H       4.866649     -1.367076      1.984962
  H       7.334422     -1.187141      1.814225
  H       6.923011      2.758562      0.103413
  H       4.462785      2.573772      0.278555
  H       9.244950     -0.051069      1.229943
  H       8.952021      2.005751     -1.047495
  H       8.958439      0.230840     -1.225257
  H      10.419028      1.078037     -0.646355
  H       7.988803      1.589857      2.985177
33
Coordinates from ORCA-job Ibuprofeno\Ibuprofeno_PBE_6-311+G\Ibuprofeno_PBE_6-311+G.orcainp E -656.060104278875
  C       2.745570      2.093166      3.251618
  C       2.440280      0.689552      2.714449
  C       0.934125      0.396334      2.762922
  C       2.975219      0.490857      1.273097
  C       4.476365      0.598633      1.144512
  C       5.308963     -0.455782      1.561167
  C       6.702498     -0.357604      1.470336
  C       7.312108      0.801018      0.957245
  C       6.482878      1.857400      0.535218
  C       5.091774      1.754494      0.628383
  C       8.827994      0.902429      0.845198
  C       9.319365      1.032258     -0.603467
  C       9.406086      2.004382      1.740076
  O       8.847432      2.131144      2.973513
  O      10.349969      2.718601      1.443426
  H       2.362988      2.209530      4.278291
  H       2.264459      2.863385      2.624260
  H       3.827464      2.299464      3.268156
  H       2.954060     -0.047601      3.359930
  H       0.379785      1.105463      2.124471
  H       0.546698      0.493984      3.789508
  H       0.711302     -0.622800      2.408762
  H       2.491686      1.230381      0.610754
  H       2.659378     -0.508759      0.926432
  H       4.859770     -1.370955      1.958709
  H       7.326767     -1.194288      1.798280
  H       6.928367      2.770334      0.128110
  H       4.468011      2.588504      0.293562
  H       9.248837     -0.028564      1.272375
  H       8.938868      1.953624     -1.068985
  H       8.963223      0.174435     -1.191681
  H      10.417262      1.053680     -0.644127
  H       8.071799      1.533511      3.045882
33
Coordinates from ORCA-job Ibuprofeno\Ibuprofeno_PBE_6-311+G\Ibuprofeno_PBE_6-311+G.orcainp E -656.060097329982
  C       2.725152      2.046117      3.312617
  C       2.423807      0.666441      2.712942
  C       0.916113      0.380080      2.729814
  C       2.975567      0.531132      1.270021
  C       4.480827      0.629023      1.150158
  C       5.306722     -0.426361      1.580664
  C       6.701622     -0.338989      1.494532
  C       7.322343      0.807669      0.967021
  C       6.500474      1.864797      0.531394
  C       5.106860      1.773962      0.623559
  C       8.840998      0.897481      0.853013
  C       9.322189      0.977135     -0.604587
  C       9.430380      2.031678      1.699132
  O       8.867053      2.228976      2.920821
  O      10.382238      2.719610      1.370130
  H       2.337838      2.120508      4.341248
  H       2.247146      2.841192      2.714601
  H       3.804927      2.253044      3.341664
  H       2.925905     -0.099256      3.333264
  H       0.373827      1.112559      2.107629
  H       0.513761      0.445244      3.753229
  H       0.694224     -0.625603      2.338347
  H       2.507206      1.310241      0.643019
  H       2.652290     -0.444245      0.865571
  H       4.851887     -1.335943      1.984572
  H       7.318017     -1.177916      1.831481
  H       6.951992      2.769568      0.112838
  H       4.490645      2.608287      0.275746
  H       9.260030     -0.018855      1.310937
  H       8.935127      1.881089     -1.097488
  H       8.960436      0.098624     -1.157826
  H      10.419716      0.996893     -0.654530
  H       8.094035      1.636027      3.024848
33
Coordinates from ORCA-job Ibuprofeno\Ibuprofeno_PBE_6-311+G\Ibuprofeno_PBE_6-311+G.orcainp E -656.060148663709
  C       2.735123      2.065138      3.287066
  C       2.432069      0.675457      2.711228
  C       0.925318      0.383768      2.743239
  C       2.974688      0.516553      1.267270
  C       4.478484      0.619114      1.148154
  C       5.306205     -0.434117      1.578339
  C       6.700556     -0.342144      1.491429
  C       7.316641      0.807753      0.966010
  C       6.492628      1.863121      0.531285
  C       5.099996      1.767407      0.622782
  C       8.833728      0.899047      0.849165
  C       9.319642      0.998993     -0.605009
  C       9.419894      2.019353      1.716850
  O       8.861402      2.183027      2.945674
  O      10.364571      2.722612      1.400037
  H       2.356611      2.153524      4.318039
  H       2.249689      2.850404      2.681732
  H       3.816081      2.274155      3.303902
  H       2.941391     -0.078806      3.340226
  H       0.375401      1.107175      2.116868
  H       0.530563      0.459202      3.769077
  H       0.704182     -0.627346      2.364992
  H       2.500911      1.281774      0.627124
  H       2.652358     -0.467678      0.884184
  H       4.853145     -1.344950      1.981776
  H       7.320854     -1.178809      1.827255
  H       6.942115      2.769717      0.114343
  H       4.480449      2.599448      0.274981
  H       9.252095     -0.024622      1.293784
  H       8.938411      1.911641     -1.086647
  H       8.958199      0.130044     -1.173482
  H      10.417490      1.016437     -0.650352
  H       8.090460      1.583819      3.039061
33
Coordinates from ORCA-job Ibuprofeno\Ibuprofeno_PBE_6-311+G\Ibuprofeno_PBE_6-311+G.orcainp E -656.060158397686
  C       2.735977      2.060248      3.291657
  C       2.432031      0.673505      2.708899
  C       0.925260      0.381247      2.740313
  C       2.974021      0.521354      1.263980
  C       4.477966      0.623563      1.147629
  C       5.304529     -0.428645      1.581964
  C       6.698975     -0.337348      1.495591
  C       7.315577      0.811015      0.967535
  C       6.492760      1.865656      0.529310
  C       5.100054      1.770649      0.619947
  C       8.832550      0.899606      0.849566
  C       9.320181      0.991066     -0.604348
  C       9.418014      2.024422      1.712473
  O       8.867462      2.183931      2.945325
  O      10.354120      2.735843      1.388767
  H       2.362133      2.142028      4.324904
  H       2.246906      2.848514      2.693057
  H       3.817125      2.270030      3.304791
  H       2.941975     -0.083762      3.333948
  H       0.374597      1.107853      2.118209
  H       0.530806      0.450822      3.766760
  H       0.704352     -0.627918      2.356550
  H       2.501263      1.290258      0.627427
  H       2.649926     -0.460538      0.876418
  H       4.850693     -1.337889      1.988199
  H       7.319356     -1.172729      1.834583
  H       6.943079      2.771264      0.110991
  H       4.480854      2.601966      0.269658
  H       9.249153     -0.022449      1.299350
  H       8.941892      1.902166     -1.091271
  H       8.957668      0.120007     -1.168938
  H      10.418177      1.005810     -0.648252
  H       8.101917      1.578666      3.045390
33
Coordinates from ORCA-job Ibuprofeno\Ibuprofeno_PBE_6-311+G\Ibuprofeno_PBE_6-311+G.orcainp E -656.060165156950
  C       2.736713      2.046657      3.306104
  C       2.429962      0.667892      2.705976
  C       0.922571      0.378108      2.732535
  C       2.973248      0.531591      1.259900
  C       4.477675      0.632165      1.147065
  C       5.302352     -0.417812      1.589973
  C       6.697001     -0.328332      1.504225
  C       7.315110      0.815945      0.969086
  C       6.494243      1.868574      0.522946
  C       5.101257      1.775455      0.612673
  C       8.832297      0.900086      0.850609
  C       9.322033      0.976295     -0.603164
  C       9.418063      2.033038      1.703241
  O       8.874258      2.196781      2.938319
  O      10.347191      2.749037      1.369625
  H       2.367754      2.114241      4.342134
  H       2.245172      2.843033      2.720362
  H       3.818180      2.255493      3.317201
  H       2.937875     -0.097760      3.322510
  H       0.373636      1.113381      2.119083
  H       0.526890      0.435310      3.759324
  H       0.700370     -0.625804      2.335817
  H       2.503035      1.308867      0.631680
  H       2.646246     -0.444925      0.861284
  H       4.847190     -1.323483      2.002654
  H       7.316955     -1.161241      1.850078
  H       6.945982      2.771270      0.099808
  H       4.483045      2.605112      0.256687
  H       9.246035     -0.018645      1.309752
  H       8.948116      1.884207     -1.099388
  H       8.957591      0.101273     -1.160362
  H      10.420212      0.986720     -0.645256
  H       8.113093      1.587682      3.047900
33
Coordinates from ORCA-job Ibuprofeno\Ibuprofeno_PBE_6-311+G\Ibuprofeno_PBE_6-311+G.orcainp E -656.060166967305
  C       2.738771      2.039049      3.313856
  C       2.428780      0.664823      2.705153
  C       0.920676      0.378874      2.728835
  C       2.972949      0.535557      1.258735
  C       4.477526      0.635075      1.146550
  C       5.301743     -0.413485      1.593760
  C       6.696434     -0.324609      1.508096
  C       7.315010      0.817430      0.968643
  C       6.494633      1.868486      0.518102
  C       5.101569      1.776025      0.607801
  C       8.832400      0.900681      0.851165
  C       9.323494      0.970971     -0.602300
  C       9.417165      2.037224      1.699605
  O       8.874462      2.203732      2.934795
  O      10.344426      2.754186      1.362688
  H       2.370565      2.100527      4.350521
  H       2.248706      2.840259      2.733580
  H       3.820696      2.245223      3.325818
  H       2.934042     -0.105769      3.317649
  H       0.374142      1.119492      2.119706
  H       0.524297      0.430491      3.755636
  H       0.696110     -0.621880      2.325561
  H       2.503891      1.316465      0.634224
  H       2.644690     -0.438573      0.855250
  H       4.846264     -1.317387      2.009898
  H       7.316255     -1.156133      1.857478
  H       6.946742      2.769427      0.091660
  H       4.483640      2.604499      0.248613
  H       9.245247     -0.016303      1.314478
  H       8.951190      1.877419     -1.102393
  H       8.958836      0.094291     -1.156733
  H      10.421743      0.980086     -0.643329
  H       8.114253      1.594059      3.047276
33
Coordinates from ORCA-job Ibuprofeno\Ibuprofeno_PBE_6-311+G\Ibuprofeno_PBE_6-311+G.orcainp E -656.060168214512
  C       2.742853      2.031729      3.320631
  C       2.427867      0.661888      2.704784
  C       0.918704      0.381908      2.725882
  C       2.972657      0.537585      1.258177
  C       4.477263      0.636171      1.145903
  C       5.301567     -0.410509      1.597546
  C       6.696217     -0.321776      1.511673
  C       7.314793      0.818017      0.967370
  C       6.494353      1.866894      0.512033
  C       5.101302      1.774593      0.602039
  C       8.832389      0.901630      0.851527
  C       9.325055      0.968822     -0.601432
  C       9.415178      2.040540      1.697818
  O       8.871753      2.208853      2.932519
  O      10.341749      2.757943      1.359776
  H       2.373952      2.089110      4.357273
  H       2.256673      2.837973      2.744181
  H       3.825583      2.233206      3.334802
  H       2.929336     -0.113725      3.313969
  H       0.375631      1.128311      2.120769
  H       0.521895      0.429102      3.752701
  H       0.690228     -0.615529      2.316691
  H       2.504427      1.320996      0.636253
  H       2.643445     -0.434862      0.851286
  H       4.846201     -1.312733      2.017357
  H       7.316125     -1.151709      1.864628
  H       6.946419      2.765910      0.081557
  H       4.483311      2.601438      0.239264
  H       9.244904     -0.014025      1.317640
  H       8.953897      1.874436     -1.103856
  H       8.960744      0.091279     -1.154709
  H      10.423353      0.977353     -0.641344
  H       8.111527      1.599392      3.045672
33
Coordinates from ORCA-job Ibuprofeno\Ibuprofeno_PBE_6-311+G\Ibuprofeno_PBE_6-311+G.orcainp E -656.060168557197
  C       2.745231      2.029915      3.321794
  C       2.427797      0.661125      2.704871
  C       0.918108      0.384051      2.725425
  C       2.972547      0.536908      1.258293
  C       4.477099      0.635421      1.145727
  C       5.301756     -0.410403      1.598771
  C       6.696350     -0.321414      1.512700
  C       7.314636      0.817738      0.966696
  C       6.493852      1.865655      0.509771
  C       5.100856      1.773087      0.600042
  C       8.832268      0.902127      0.851449
  C       9.325410      0.970093     -0.601298
  C       9.413983      2.041006      1.698363
  O       8.869739      2.208795      2.932838
  O      10.340620      2.758672      1.361084
  H       2.375020      2.087587      4.357956
  H       2.261793      2.837674      2.745177
  H       3.828422      2.228773      3.337603
  H       2.927569     -0.115914      3.313603
  H       0.376598      1.132378      2.121299
  H       0.521369      0.430624      3.752294
  H       0.687622     -0.612358      2.314878
  H       2.504330      1.320310      0.636358
  H       2.643327     -0.435513      0.851289
  H       4.846695     -1.312205      2.019805
  H       7.316404     -1.150770      1.866748
  H       6.945659      2.764077      0.077801
  H       4.482636      2.599219      0.236031
  H       9.245029     -0.013437      1.317515
  H       8.954259      1.875862     -1.103431
  H       8.961435      0.092765     -1.155136
  H      10.423710      0.978858     -0.640974
  H       8.109224      1.599503      3.045038
