33
Coordinates from ORCA-job Ibuprofeno\Ibuprofeno_TPSS_STO-3G\Ibuprofeno_TPSS_STO-3G.orcainp E -648.722852018419
  C       2.511580      1.947560      2.605730
  C       2.255360      0.961600      1.464470
  C       0.745240      0.811060      1.249360
  C       2.925800      1.409390      0.151720
  C       4.430340      1.557890      0.207170
  C       5.261670      0.462400      0.465900
  C       6.654760      0.598830      0.425510
  C       7.247910      1.831550      0.111930
  C       6.410470      2.935190     -0.110260
  C       5.021030      2.798760     -0.061280
  C       8.761020      1.932250     -0.056630
  C       9.095400      2.352160     -1.494270
  C       9.512720      2.831110      0.919230
  O       8.808910      3.320350      1.964680
  O      10.707390      3.086210      0.802130
  H       2.023430      1.607300      3.525190
  H       2.122500      2.942660      2.364540
  H       3.580500      2.042240      2.819680
  H       2.652010     -0.017450      1.760220
  H       0.285370      1.767470      0.975600
  H       0.255820      0.452230      2.161150
  H       0.531530      0.093070      0.450690
  H       2.476570      2.356520     -0.175730
  H       2.696140      0.685400     -0.641970
  H       4.831800     -0.516140      0.670970
  H       7.268130     -0.283200      0.602970
  H       6.827830      3.910670     -0.355750
  H       4.399270      3.668640     -0.265360
  H       9.182940      0.930390      0.104710
  H       8.710340      3.351990     -1.724900
  H       8.664170      1.651510     -2.217810
  H      10.177580      2.380880     -1.659650
  H       7.871630      3.045600      1.995660
33
Coordinates from ORCA-job Ibuprofeno\Ibuprofeno_TPSS_STO-3G\Ibuprofeno_TPSS_STO-3G.orcainp E -648.745770309177
  C       2.483587      1.954434      2.651540
  C       2.208488      0.953691      1.488488
  C       0.670370      0.784745      1.280797
  C       2.878058      1.414295      0.145385
  C       4.413842      1.565748      0.184505
  C       5.256659      0.454533      0.435758
  C       6.661591      0.585131      0.388401
  C       7.270327      1.827480      0.077351
  C       6.426725      2.946816     -0.144414
  C       5.022454      2.816562     -0.088941
  C       8.808105      1.924530     -0.078616
  C       9.192448      2.348606     -1.535390
  C       9.560090      2.862339      0.961307
  O       8.806855      3.369903      2.021421
  O      10.786955      3.139322      0.879471
  H       2.002493      1.605356      3.584144
  H       2.083076      2.957280      2.413806
  H       3.566099      2.053408      2.849424
  H       2.623136     -0.036016      1.775781
  H       0.199338      1.748239      1.011540
  H       0.188919      0.415811      2.205581
  H       0.455792      0.060724      0.472396
  H       2.423787      2.373813     -0.172478
  H       2.627574      0.676560     -0.648044
  H       4.816480     -0.534856      0.647886
  H       7.285623     -0.307435      0.568257
  H       6.859783      3.932669     -0.386160
  H       4.393761      3.701604     -0.286374
  H       9.224133      0.906378      0.091061
  H       8.810730      3.358283     -1.774519
  H       8.775192      1.639627     -2.274481
  H      10.292122      2.369106     -1.658909
  H       7.832569      3.037400      1.949628
33
Coordinates from ORCA-job Ibuprofeno\Ibuprofeno_TPSS_STO-3G\Ibuprofeno_TPSS_STO-3G.orcainp E -648.749016217085
  C       2.504236      1.975799      2.663114
  C       2.217057      0.963069      1.504660
  C       0.673149      0.768324      1.320055
  C       2.859036      1.429765      0.141813
  C       4.402009      1.572464      0.158497
  C       5.242345      0.449501      0.393210
  C       6.648926      0.569765      0.339671
  C       7.267859      1.814438      0.040744
  C       6.428311      2.943355     -0.175644
  C       5.021071      2.822392     -0.113996
  C       8.810642      1.908831     -0.086363
  C       9.251222      2.350091     -1.528853
  C       9.514673      2.864829      0.998044
  O       8.692790      3.366189      2.036441
  O      10.741734      3.169329      0.975254
  H       2.042869      1.622857      3.604215
  H       2.086253      2.971489      2.424813
  H       3.590574      2.086067      2.833607
  H       2.655206     -0.019620      1.782239
  H       0.187608      1.725673      1.054092
  H       0.215859      0.396471      2.255805
  H       0.462071      0.037797      0.516904
  H       2.407854      2.397049     -0.157361
  H       2.585720      0.689341     -0.640901
  H       4.794097     -0.536075      0.606680
  H       7.273445     -0.323053      0.516807
  H       6.872567      3.926949     -0.406386
  H       4.394850      3.712533     -0.297257
  H       9.224572      0.892009      0.095654
  H       8.863606      3.356521     -1.772258
  H       8.871291      1.636302     -2.283162
  H      10.355339      2.378949     -1.594875
  H       7.748319      2.986690      1.830334
33
Coordinates from ORCA-job Ibuprofeno\Ibuprofeno_TPSS_STO-3G\Ibuprofeno_TPSS_STO-3G.orcainp E -648.749796630530
  C       2.538133      2.022941      2.649900
  C       2.242229      0.981289      1.519515
  C       0.698902      0.755284      1.368841
  C       2.849438      1.432345      0.134112
  C       4.392213      1.567592      0.124357
  C       5.229590      0.439715      0.349934
  C       6.634899      0.554965      0.294928
  C       7.257696      1.801127      0.006678
  C       6.420663      2.932492     -0.212135
  C       5.013903      2.814868     -0.150680
  C       8.800152      1.898323     -0.091777
  C       9.283437      2.380502     -1.506888
  C       9.456132      2.843445      1.038922
  O       8.577336      3.290488      2.071494
  O      10.676019      3.167159      1.071315
  H       2.102013      1.681690      3.606769
  H       2.098374      3.005173      2.396783
  H       3.626769      2.151843      2.789046
  H       2.706747      0.013107      1.803295
  H       0.194429      1.698806      1.090485
  H       0.268793      0.397487      2.322426
  H       0.489969      0.003082      0.585983
  H       2.399558      2.401078     -0.160033
  H       2.555123      0.681450     -0.629699
  H       4.776380     -0.543659      0.562424
  H       7.261414     -0.336882      0.468873
  H       6.871116      3.913217     -0.442769
  H       4.387759      3.705751     -0.329822
  H       9.215863      0.881918      0.083872
  H       8.885061      3.384945     -1.738185
  H       8.941550      1.674529     -2.286033
  H      10.388350      2.425242     -1.524715
  H       7.667150      2.884777      1.768382
33
Coordinates from ORCA-job Ibuprofeno\Ibuprofeno_TPSS_STO-3G\Ibuprofeno_TPSS_STO-3G.orcainp E -648.750064574162
  C       2.576544      2.081731      2.617875
  C       2.266044      1.000441      1.530678
  C       0.723561      0.752613      1.421109
  C       2.840576      1.414054      0.120297
  C       4.381445      1.547270      0.083564
  C       5.220149      0.420717      0.307981
  C       6.624395      0.539021      0.256398
  C       7.244900      1.788384     -0.023479
  C       6.405499      2.916311     -0.250940
  C       4.999585      2.794485     -0.195384
  C       8.787137      1.894840     -0.094028
  C       9.296926      2.433727     -1.477619
  C       9.413507      2.799604      1.085938
  O       8.509387      3.180937      2.127116
  O      10.621071      3.156738      1.139178
  H       2.168493      1.767731      3.595914
  H       2.118692      3.049369      2.342607
  H       3.666929      2.227253      2.723406
  H       2.749769      0.048095      1.833938
  H       0.203222      1.679983      1.119549
  H       0.317937      0.425211      2.395830
  H       0.508386     -0.029665      0.670462
  H       2.387479      2.377009     -0.186425
  H       2.530326      0.644281     -0.617318
  H       4.767645     -0.562529      0.520854
  H       7.254492     -0.349475      0.432546
  H       6.855497      3.897642     -0.478093
  H       4.370849      3.683109     -0.374577
  H       9.205988      0.875764      0.054127
  H       8.889659      3.440008     -1.682051
  H       8.984563      1.751180     -2.289031
  H      10.400902      2.493197     -1.464209
  H       7.615607      2.767055      1.789385
33
Coordinates from ORCA-job Ibuprofeno\Ibuprofeno_TPSS_STO-3G\Ibuprofeno_TPSS_STO-3G.orcainp E -648.750226473338
  C       2.605191      2.167605      2.567423
  C       2.291651      1.027853      1.543352
  C       0.753530      0.745266      1.478822
  C       2.833290      1.383780      0.104452
  C       4.371548      1.521294      0.047075
  C       5.214647      0.398824      0.271745
  C       6.617636      0.524731      0.223357
  C       7.231558      1.778651     -0.051961
  C       6.386792      2.901121     -0.284863
  C       4.982362      2.771114     -0.233781
  C       8.772682      1.897216     -0.104940
  C       9.299649      2.508497     -1.449727
  C       9.375125      2.743598      1.129878
  O       8.465059      3.001692      2.205417
  O      10.571312      3.127006      1.208534
  H       2.228832      1.895373      3.570257
  H       2.120171      3.110675      2.256098
  H       3.694959      2.339885      2.635613
  H       2.802125      0.101767      1.881654
  H       0.209107      1.644614      1.137804
  H       0.373162      0.464100      2.477775
  H       0.540549     -0.080948      0.776329
  H       2.372212      2.333039     -0.231173
  H       2.513358      0.583995     -0.595563
  H       4.765510     -0.586531      0.481142
  H       7.254213     -0.359303      0.397877
  H       6.833501      3.884649     -0.507700
  H       4.348216      3.655000     -0.416162
  H       9.197426      0.875195      0.000038
  H       8.879031      3.516128     -1.615568
  H       9.016764      1.859689     -2.298561
  H      10.401682      2.585847     -1.408897
  H       7.584308      2.584667      1.839855
33
Coordinates from ORCA-job Ibuprofeno\Ibuprofeno_TPSS_STO-3G\Ibuprofeno_TPSS_STO-3G.orcainp E -648.750298751398
  C       2.618561      2.221874      2.534319
  C       2.304914      1.046022      1.551579
  C       0.769599      0.745156      1.513800
  C       2.830112      1.360137      0.096013
  C       4.367340      1.502234      0.028918
  C       5.213579      0.381312      0.247151
  C       6.616255      0.512907      0.200451
  C       7.225418      1.770932     -0.068210
  C       6.377108      2.891561     -0.295104
  C       4.973558      2.756323     -0.244545
  C       8.766345      1.896401     -0.113235
  C       9.302965      2.553967     -1.431029
  C       9.354623      2.700143      1.156438
  O       8.437293      2.895992      2.237745
  O      10.535498      3.126708      1.242301
  H       2.260598      1.978109      3.551207
  H       2.117596      3.148859      2.200481
  H       3.707100      2.409109      2.580458
  H       2.829547      0.137120      1.914452
  H       0.211499      1.625527      1.146158
  H       0.401995      0.496448      2.526175
  H       0.558434     -0.108402      0.844100
  H       2.362358      2.297274     -0.263836
  H       2.507567      0.538864     -0.577145
  H       4.766976     -0.606738      0.449687
  H       7.256886     -0.369510      0.369059
  H       6.821162      3.878481     -0.508036
  H       4.335850      3.638530     -0.423045
  H       9.194104      0.872635     -0.038532
  H       8.873631      3.561679     -1.572854
  H       9.039924      1.928773     -2.303694
  H      10.403386      2.643203     -1.372709
  H       7.565379      2.474459      1.857082
33
Coordinates from ORCA-job Ibuprofeno\Ibuprofeno_TPSS_STO-3G\Ibuprofeno_TPSS_STO-3G.orcainp E -648.750350040024
  C       2.614354      2.241903      2.524848
  C       2.304155      1.052942      1.556481
  C       0.769208      0.748918      1.522160
  C       2.830040      1.346218      0.095739
  C       4.367387      1.493312      0.025302
  C       5.216837      0.373748      0.237879
  C       6.619702      0.509433      0.190024
  C       7.225499      1.770419     -0.073669
  C       6.373845      2.889710     -0.295542
  C       4.970428      2.750696     -0.243359
  C       8.767176      1.898775     -0.118138
  C       9.303696      2.571089     -1.427929
  C       9.355203      2.689172      1.160968
  O       8.446579      2.852019      2.252482
  O      10.531638      3.129955      1.246487
  H       2.256828      2.009636      3.544628
  H       2.111157      3.163695      2.180024
  H       3.701924      2.432407      2.569973
  H       2.829935      0.149906      1.932558
  H       0.209369      1.622559      1.141150
  H       0.400980      0.514545      2.537794
  H       0.559607     -0.114902      0.865148
  H       2.357692      2.274865     -0.280107
  H       2.511145      0.512300     -0.563349
  H       4.772904     -0.615978      0.438512
  H       7.262554     -0.372064      0.355373
  H       6.814898      3.878886     -0.504319
  H       4.330257      3.632084     -0.417423
  H       9.195508      0.874276     -0.055241
  H       8.869768      3.577916     -1.563099
  H       9.047841      1.952767     -2.307697
  H      10.403424      2.666791     -1.365290
  H       7.575624      2.428092      1.873236
33
Coordinates from ORCA-job Ibuprofeno\Ibuprofeno_TPSS_STO-3G\Ibuprofeno_TPSS_STO-3G.orcainp E -648.750417273514
  C       2.606416      2.304762      2.488957
  C       2.309438      1.075223      1.567743
  C       0.777510      0.753701      1.545689
  C       2.832489      1.312157      0.095131
  C       4.368289      1.471414      0.020747
  C       5.224564      0.354445      0.217547
  C       6.626874      0.498947      0.165080
  C       7.224029      1.767128     -0.084209
  C       6.365207      2.884429     -0.287877
  C       4.963051      2.736406     -0.233616
  C       8.765285      1.903117     -0.131779
  C       9.298619      2.618704     -1.418720
  C       9.348288      2.656070      1.173491
  O       8.459768      2.719490      2.289264
  O      10.508689      3.139530      1.262324
  H       2.253891      2.106378      3.517654
  H       2.090561      3.206518      2.111285
  H       3.692009      2.510740      2.525118
  H       2.844426      0.193292      1.980053
  H       0.208159      1.604162      1.127870
  H       0.410872      0.558689      2.570244
  H       0.577093     -0.139475      0.925971
  H       2.349009      2.217503     -0.321722
  H       2.523575      0.445589     -0.525188
  H       4.786416     -0.639887      0.408597
  H       7.275163     -0.381105      0.316954
  H       6.799603      3.878918     -0.485411
  H       4.316941      3.615898     -0.395548
  H       9.196788      0.878279     -0.102190
  H       8.850313      3.622120     -1.531435
  H       9.060353      2.020878     -2.317479
  H      10.396186      2.731361     -1.344771
  H       7.597287      2.280710      1.905827
33
Coordinates from ORCA-job Ibuprofeno\Ibuprofeno_TPSS_STO-3G\Ibuprofeno_TPSS_STO-3G.orcainp E -648.750448665714
  C       2.586083      2.337039      2.472752
  C       2.304026      1.087157      1.574807
  C       0.773269      0.759523      1.545431
  C       2.837984      1.291394      0.101010
  C       4.373123      1.459144      0.029127
  C       5.233893      0.343281      0.211597
  C       6.635990      0.492926      0.155698
  C       7.228232      1.765454     -0.082708
  C       6.364861      2.882459     -0.268054
  C       4.963349      2.729327     -0.211115
  C       8.769185      1.905867     -0.140966
  C       9.289801      2.639937     -1.422342
  C       9.359170      2.645776      1.169005
  O       8.497946      2.649882      2.307043
  O      10.505638      3.164284      1.244541
  H       2.224340      2.156937      3.501651
  H       2.068955      3.228107      2.072124
  H       3.669592      2.549884      2.515963
  H       2.838002      0.216189      2.011128
  H       0.204838      1.598467      1.103728
  H       0.397857      0.585766      2.570654
  H       0.581519     -0.147766      0.943725
  H       2.349473      2.181194     -0.342609
  H       2.540695      0.405358     -0.496808
  H       4.799566     -0.654684      0.392272
  H       7.286794     -0.387533      0.293851
  H       6.794787      3.880583     -0.456836
  H       4.314109      3.608507     -0.361828
  H       9.202950      0.881651     -0.127935
  H       8.830568      3.639600     -1.523212
  H       9.054990      2.048916     -2.326468
  H      10.386366      2.763852     -1.350668
  H       7.639209      2.197608      1.931041
33
Coordinates from ORCA-job Ibuprofeno\Ibuprofeno_TPSS_STO-3G\Ibuprofeno_TPSS_STO-3G.orcainp E -648.750463004075
  C       2.576032      2.329975      2.480487
  C       2.298971      1.084578      1.575179
  C       0.767979      0.759190      1.535327
  C       2.840365      1.295334      0.105289
  C       4.375864      1.462233      0.035347
  C       5.235918      0.344952      0.213182
  C       6.638180      0.492790      0.156552
  C       7.232068      1.764874     -0.078937
  C       6.369662      2.883563     -0.258607
  C       4.967832      2.732260     -0.200537
  C       8.773083      1.904935     -0.139848
  C       9.288879      2.628501     -1.429534
  C       9.366491      2.657246      1.160369
  O       8.508632      2.670763      2.301943
  O      10.511545      3.179142      1.225859
  H       2.207354      2.145212      3.506062
  H       2.061695      3.222840      2.080373
  H       3.658835      2.542846      2.531606
  H       2.829344      0.210845      2.010145
  H       0.203459      1.601823      1.095745
  H       0.386861      0.579616      2.557397
  H       0.578398     -0.143991      0.926866
  H       2.353808      2.187719     -0.335191
  H       2.545058      0.412197     -0.497746
  H       4.800952     -0.653275      0.390603
  H       7.287558     -0.389216      0.291227
  H       6.800441      3.881963     -0.443788
  H       4.319993      3.613178     -0.346781
  H       9.207356      0.881134     -0.118440
  H       8.829195      3.627367     -1.535180
  H       9.048999      2.030280     -2.327509
  H      10.385792      2.751987     -1.363840
  H       7.650562      2.213226      1.931984
33
Coordinates from ORCA-job Ibuprofeno\Ibuprofeno_TPSS_STO-3G\Ibuprofeno_TPSS_STO-3G.orcainp E -648.750474060099
  C       2.573881      2.348907      2.467505
  C       2.303093      1.091345      1.577777
  C       0.773834      0.757989      1.541815
  C       2.842356      1.289843      0.106046
  C       4.376877      1.457045      0.033913
  C       5.237063      0.338101      0.198620
  C       6.638945      0.486152      0.142216
  C       7.232336      1.760473     -0.079772
  C       6.369921      2.880790     -0.246124
  C       4.968579      2.729156     -0.188621
  C       8.772300      1.905577     -0.138627
  C       9.285666      2.631355     -1.428316
  C       9.358523      2.660430      1.161008
  O       8.506858      2.641437      2.310098
  O      10.489210      3.211049      1.220795
  H       2.208138      2.174269      3.495825
  H       2.052626      3.233011      2.057159
  H       3.655535      2.570534      2.513099
  H       2.838028      0.225186      2.021973
  H       0.205595      1.593890      1.094436
  H       0.394218      0.586430      2.565751
  H       0.588671     -0.151770      0.942015
  H       2.355191      2.179146     -0.339857
  H       2.547683      0.402211     -0.490365
  H       4.802497     -0.661949      0.366148
  H       7.288329     -0.397172      0.267446
  H       6.800673      3.881479     -0.418088
  H       4.321070      3.612060     -0.323341
  H       9.210963      0.883697     -0.115224
  H       8.819924      3.627447     -1.532373
  H       9.048324      2.031591     -2.325820
  H      10.381780      2.760082     -1.361965
  H       7.658474      2.166299      1.940449
33
Coordinates from ORCA-job Ibuprofeno\Ibuprofeno_TPSS_STO-3G\Ibuprofeno_TPSS_STO-3G.orcainp E -648.750479022244
  C       2.573018      2.338894      2.474225
  C       2.301516      1.087607      1.575715
  C       0.771996      0.755618      1.537196
  C       2.841481      1.296058      0.105462
  C       4.376483      1.461886      0.034525
  C       5.235440      0.342081      0.200372
  C       6.637638      0.488588      0.145261
  C       7.232717      1.762191     -0.076385
  C       6.371575      2.883494     -0.244280
  C       4.969814      2.733385     -0.188077
  C       8.773130      1.905151     -0.135546
  C       9.286793      2.620124     -1.431296
  C       9.361649      2.668530      1.158164
  O       8.509137      2.664585      2.306318
  O      10.495625      3.213126      1.214918
  H       2.207119      2.157711      3.501371
  H       2.052456      3.226170      2.069780
  H       3.654695      2.559434      2.521589
  H       2.835768      0.218086      2.014259
  H       0.204316      1.595148      1.095878
  H       0.392101      0.576844      2.559809
  H       0.586200     -0.149646      0.930771
  H       2.355568      2.189208     -0.334142
  H       2.545740      0.413300     -0.497729
  H       4.799723     -0.657537      0.367669
  H       7.285922     -0.395487      0.271030
  H       6.803587      3.883439     -0.417749
  H       4.323397      3.616833     -0.324665
  H       9.210418      0.882842     -0.104933
  H       8.824411      3.617172     -1.541539
  H       9.045542      2.015039     -2.324199
  H      10.383526      2.745472     -1.368179
  H       7.658659      2.190745      1.940008
33
Coordinates from ORCA-job Ibuprofeno\Ibuprofeno_TPSS_STO-3G\Ibuprofeno_TPSS_STO-3G.orcainp E -648.750482569001
  C       2.572173      2.334257      2.477089
  C       2.301417      1.086040      1.573902
  C       0.772255      0.752362      1.535213
  C       2.840601      1.301003      0.104113
  C       4.375922      1.465839      0.034042
  C       5.233627      0.344752      0.197648
  C       6.636129      0.490033      0.144267
  C       7.232563      1.763618     -0.073393
  C       6.372699      2.886333     -0.239467
  C       4.970654      2.737486     -0.184875
  C       8.773286      1.905147     -0.132104
  C       9.287773      2.608922     -1.433708
  C       9.361830      2.677614      1.156066
  O       8.511462      2.677711      2.305474
  O      10.494928      3.224917      1.208951
  H       2.208147      2.148739      3.504144
  H       2.049676      3.222301      2.076785
  H       3.653533      2.556228      2.523874
  H       2.837014      0.215561      2.008964
  H       0.203086      1.593038      1.097960
  H       0.393326      0.568710      2.557340
  H       0.587033     -0.150553      0.925080
  H       2.355253      2.196603     -0.331162
  H       2.543852      0.421516     -0.503387
  H       4.796784     -0.654901      0.361897
  H       7.283463     -0.394993      0.268340
  H       6.805972      3.886184     -0.410598
  H       4.325224      3.621859     -0.320311
  H       9.209636      0.882645     -0.093593
  H       8.827876      3.606342     -1.551345
  H       9.044127      1.997745     -2.321817
  H      10.384910      2.732074     -1.372825
  H       7.660928      2.200960      1.943035
33
Coordinates from ORCA-job Ibuprofeno\Ibuprofeno_TPSS_STO-3G\Ibuprofeno_TPSS_STO-3G.orcainp E -648.750484901959
  C       2.570944      2.331105      2.479229
  C       2.301858      1.085290      1.572127
  C       0.773372      0.748538      1.533657
  C       2.839929      1.306351      0.102693
  C       4.375491      1.470029      0.033440
  C       5.231718      0.347266      0.192921
  C       6.634491      0.491184      0.141285
  C       7.232326      1.764945     -0.070607
  C       6.373987      2.889421     -0.232996
  C       4.971726      2.742000     -0.179913
  C       8.773280      1.905155     -0.128393
  C       9.289146      2.596026     -1.436357
  C       9.360175      2.688710      1.153446
  O       8.513151      2.688111      2.305285
  O      10.489586      3.244287      1.201139
  H       2.209354      2.141252      3.506363
  H       2.045457      3.219167      2.082897
  H       3.651851      2.555578      2.524855
  H       2.839643      0.214567      2.003994
  H       0.201926      1.589560      1.100033
  H       0.395749      0.560297      2.555445
  H       0.589494     -0.152540      0.920390
  H       2.355124      2.204271     -0.328401
  H       2.542025      0.429924     -0.508651
  H       4.793555     -0.652528      0.352786
  H       7.280822     -0.394971      0.262540
  H       6.808751      3.889438     -0.399542
  H       4.327361      3.627640     -0.312166
  H       9.208827      0.882679     -0.080175
  H       8.831182      3.593244     -1.563347
  H       9.044163      1.977189     -2.318791
  H      10.386543      2.717696     -1.376988
  H       7.664150      2.205208      1.947401
33
Coordinates from ORCA-job Ibuprofeno\Ibuprofeno_TPSS_STO-3G\Ibuprofeno_TPSS_STO-3G.orcainp E -648.750485618201
  C       2.570703      2.329631      2.480385
  C       2.302066      1.085110      1.571390
  C       0.773820      0.747350      1.532858
  C       2.839779      1.308673      0.102192
  C       4.375381      1.471799      0.033302
  C       5.231005      0.348383      0.191253
  C       6.633834      0.491806      0.140139
  C       7.232138      1.765616     -0.069781
  C       6.374430      2.890717     -0.230766
  C       4.972131      2.743826     -0.178088
  C       8.773157      1.905223     -0.127129
  C       9.290005      2.590665     -1.437510
  C       9.358723      2.693729      1.152109
  O       8.513514      2.690823      2.305407
  O      10.485572      3.254634      1.197298
  H       2.209851      2.137698      3.507391
  H       2.044344      3.217986      2.085900
  H       3.651529      2.554708      2.525744
  H       2.840588      0.214086      2.001706
  H       0.201632      1.588552      1.100572
  H       0.396624      0.557395      2.554485
  H       0.590443     -0.152993      0.918370
  H       2.355264      2.207520     -0.327270
  H       2.541349      0.433394     -0.510525
  H       4.792285     -0.651392      0.349652
  H       7.279850     -0.394700      0.260449
  H       6.809798      3.890788     -0.395432
  H       4.328085      3.629912     -0.308880
  H       9.208312      0.882795     -0.074563
  H       8.832299      3.587408     -1.569123
  H       9.045558      1.968147     -2.317506
  H      10.387382      2.712418     -1.377939
  H       7.665711      2.204385      1.949509
33
Coordinates from ORCA-job Ibuprofeno\Ibuprofeno_TPSS_STO-3G\Ibuprofeno_TPSS_STO-3G.orcainp E -648.750486041871
  C       2.571046      2.326643      2.482534
  C       2.301914      1.084521      1.570464
  C       0.773612      0.747171      1.531193
  C       2.839717      1.311250      0.101814
  C       4.375340      1.473692      0.033447
  C       5.230390      0.349722      0.190523
  C       6.633242      0.492687      0.139814
  C       7.231966      1.766460     -0.068913
  C       6.374876      2.892035     -0.229100
  C       4.972554      2.745637     -0.176706
  C       8.773042      1.905464     -0.125898
  C       9.290942      2.584815     -1.438956
  C       9.356982      2.699983      1.150172
  O       8.514468      2.693494      2.305645
  O      10.480114      3.268412      1.191715
  H       2.210178      2.132013      3.509023
  H       2.045010      3.216247      2.090476
  H       3.652028      2.551064      2.528351
  H       2.840284      0.212305      1.998528
  H       0.201597      1.589332      1.100561
  H       0.396380      0.555256      2.552436
  H       0.590115     -0.151899      0.914894
  H       2.355713      2.211273     -0.325721
  H       2.540739      0.437382     -0.512646
  H       4.791108     -0.649931      0.348059
  H       7.279000     -0.394062      0.259648
  H       6.810814      3.892064     -0.392523
  H       4.328744      3.632035     -0.306480
  H       9.207850      0.883173     -0.068266
  H       8.832660      3.580521     -1.576272
  H       9.048114      1.957652     -2.316099
  H      10.388149      2.707677     -1.378599
  H       7.668472      2.202002      1.952483
