33
Coordinates from ORCA-job Dexketoprofen\Dexketoprofen_TPSS_def2-TZVP\Dexketoprofen_TPSS_def2-TZVP.orcainp E -844.296518371035
  H       2.999150     -0.594820     -0.340590
  C       2.103780     -0.012970     -0.084620
  C       1.050320     -0.281950     -1.165880
  C       1.633110     -0.576030      1.256510
  O       2.134120      0.035270      2.354340
  O       0.912950     -1.559660      1.362340
  C       2.474230      1.466740     -0.079060
  C       3.784690      1.869900     -0.399310
  C       4.118070      3.231890     -0.460050
  C       3.133240      4.195670     -0.221770
  C       1.838030      3.806640      0.114460
  C       1.511810      2.452690      0.192520
  C       5.475660      3.704370     -0.846980
  O       5.577970      4.745910     -1.487730
  C       6.707790      2.958510     -0.480760
  C       6.797470      2.204390      0.695550
  C       7.977850      1.523530      0.999960
  C       9.077570      1.613590      0.146710
  C       9.004040      2.389240     -1.009420
  C       7.823090      3.063820     -1.322050
  H       0.844930     -1.353840     -1.257230
  H       1.386310      0.079410     -2.144070
  H       0.097830      0.208630     -0.933950
  H       2.695030      0.810740      2.169410
  H       4.533720      1.118350     -0.642450
  H       3.370830      5.254910     -0.311160
  H       1.075560      4.562110      0.292200
  H       0.486300      2.177420      0.436950
  H       5.969110      2.151370      1.395420
  H       8.045930      0.931960      1.909750
  H       9.998800      1.089650      0.390560
  H       9.867350      2.474470     -1.664910
  H       7.775420      3.676070     -2.221020
33
Coordinates from ORCA-job Dexketoprofen\Dexketoprofen_TPSS_def2-TZVP\Dexketoprofen_TPSS_def2-TZVP.orcainp E -844.298942023282
  H       3.065011     -0.551085     -0.306849
  C       2.146425      0.007588     -0.079888
  C       1.111047     -0.333903     -1.167713
  C       1.697610     -0.534479      1.282248
  O       2.159944      0.108284      2.375635
  O       0.975685     -1.503482      1.421471
  C       2.488981      1.492047     -0.086382
  C       3.791878      1.912741     -0.387846
  C       4.108419      3.277931     -0.463679
  C       3.111088      4.231663     -0.221079
  C       1.821559      3.823006      0.112291
  C       1.511125      2.463124      0.176756
  C       5.470854      3.756218     -0.849347
  O       5.589474      4.819610     -1.466843
  C       6.683585      2.960900     -0.498780
  C       6.725852      2.132711      0.633087
  C       7.896442      1.443220      0.953852
  C       9.022884      1.559493      0.136938
  C       8.986460      2.381022     -0.993402
  C       7.825095      3.085884     -1.305649
  H       0.943926     -1.413734     -1.222593
  H       1.456754      0.007799     -2.147574
  H       0.145563      0.139823     -0.962182
  H       2.705574      0.886514      2.151168
  H       4.555850      1.169365     -0.600389
  H       3.346190      5.289686     -0.286394
  H       1.054307      4.565020      0.314408
  H       0.496072      2.167440      0.431737
  H       5.864614      2.043890      1.288868
  H       7.930032      0.812707      1.838036
  H       9.929533      1.011981      0.381090
  H       9.863571      2.474949     -1.627785
  H       7.800657      3.730048     -2.179543
33
Coordinates from ORCA-job Dexketoprofen\Dexketoprofen_TPSS_def2-TZVP\Dexketoprofen_TPSS_def2-TZVP.orcainp E -844.299310334764
  H       3.044404     -0.534824     -0.352826
  C       2.122931      0.018103     -0.118611
  C       1.075593     -0.335484     -1.194137
  C       1.704067     -0.528018      1.254935
  O       2.247668      0.051585      2.347458
  O       1.006446     -1.508404      1.409930
  C       2.473721      1.498851     -0.105274
  C       3.773106      1.915405     -0.409518
  C       4.104890      3.278680     -0.461546
  C       3.115146      4.236637     -0.192746
  C       1.827208      3.830293      0.147674
  C       1.505612      2.471326      0.185218
  C       5.467635      3.749816     -0.869906
  O       5.588622      4.810554     -1.499467
  C       6.676560      2.948135     -0.505127
  C       6.735634      2.177207      0.668884
  C       7.911707      1.510458      1.014347
  C       9.027177      1.579723      0.176089
  C       8.973605      2.338230     -0.999535
  C       7.811771      3.030518     -1.329756
  H       0.915154     -1.415713     -1.235158
  H       1.422343      0.002917     -2.173775
  H       0.115928      0.144818     -0.980930
  H       2.797803      0.819930      2.092997
  H       4.525709      1.168480     -0.643191
  H       3.366669      5.290919     -0.231282
  H       1.070181      4.571517      0.384951
  H       0.494252      2.172191      0.448008
  H       5.879827      2.127274      1.334786
  H       7.956897      0.934565      1.934044
  H       9.936693      1.045676      0.437233
  H       9.838624      2.390463     -1.654471
  H       7.768476      3.626152     -2.235628
33
Coordinates from ORCA-job Dexketoprofen\Dexketoprofen_TPSS_def2-TZVP\Dexketoprofen_TPSS_def2-TZVP.orcainp E -844.299568647239
  H       3.044398     -0.536522     -0.366246
  C       2.123234      0.015383     -0.128142
  C       1.070399     -0.338267     -1.195814
  C       1.715226     -0.535895      1.246512
  O       2.253431      0.054362      2.339700
  O       0.967744     -1.480248      1.405510
  C       2.474481      1.495942     -0.109168
  C       3.773629      1.914487     -0.413330
  C       4.106612      3.277808     -0.454007
  C       3.115877      4.234240     -0.182328
  C       1.827442      3.826347      0.153725
  C       1.505684      2.467535      0.185038
  C       5.468188      3.749833     -0.861721
  O       5.587901      4.804314     -1.499061
  C       6.676078      2.947223     -0.500531
  C       6.743784      2.189502      0.681375
  C       7.920216      1.521965      1.022845
  C       9.030467      1.583433      0.177356
  C       8.969810      2.331845     -1.004275
  C       7.806635      3.021645     -1.332763
  H       0.908752     -1.418234     -1.229393
  H       1.418154     -0.003731     -2.176749
  H       0.114695      0.148569     -0.979394
  H       2.812490      0.813230      2.074334
  H       4.526020      1.168210     -0.652804
  H       3.369495      5.289009     -0.218310
  H       1.068605      4.566337      0.390928
  H       0.492826      2.165304      0.440575
  H       5.890801      2.147338      1.351508
  H       7.970559      0.955108      1.948040
  H       9.942009      1.052703      0.438304
  H       9.830808      2.377513     -1.665245
  H       7.755611      3.611691     -2.242799
33
Coordinates from ORCA-job Dexketoprofen\Dexketoprofen_TPSS_def2-TZVP\Dexketoprofen_TPSS_def2-TZVP.orcainp E -844.299682943935
  H       3.054967     -0.532469     -0.351382
  C       2.133295      0.019470     -0.115103
  C       1.078224     -0.342996     -1.174922
  C       1.728765     -0.523240      1.263316
  O       2.304850      0.052558      2.347792
  O       0.965857     -1.455979      1.430195
  C       2.479398      1.501822     -0.108602
  C       3.779454      1.923502     -0.410646
  C       4.105162      3.287778     -0.461681
  C       3.110117      4.241958     -0.200452
  C       1.820995      3.831990      0.130148
  C       1.504551      2.472624      0.171408
  C       5.467008      3.759739     -0.861102
  O       5.591587      4.821314     -1.481212
  C       6.670069      2.952526     -0.503203
  C       6.715365      2.158117      0.654230
  C       7.884496      1.477319      0.994047
  C       9.010331      1.566201      0.172433
  C       8.971467      2.350951     -0.985682
  C       7.813832      3.049943     -1.314332
  H       0.914816     -1.423035     -1.193701
  H       1.426183     -0.021078     -2.160452
  H       0.124460      0.149509     -0.962335
  H       2.876895      0.798099      2.073219
  H       4.538357      1.178408     -0.637061
  H       3.360197      5.297961     -0.247320
  H       1.056235      4.571085      0.352345
  H       0.490428      2.167941      0.420394
  H       5.847265      2.091959      1.303543
  H       7.916782      0.879128      1.900371
  H       9.917307      1.027584      0.433523
  H       9.845220      2.417620     -1.628149
  H       7.778125      3.669669     -2.205955
33
Coordinates from ORCA-job Dexketoprofen\Dexketoprofen_TPSS_def2-TZVP\Dexketoprofen_TPSS_def2-TZVP.orcainp E -844.299749404292
  H       3.047583     -0.531319     -0.364775
  C       2.127323      0.020799     -0.122784
  C       1.065285     -0.338804     -1.176231
  C       1.731825     -0.522868      1.257972
  O       2.353660      0.020286      2.335146
  O       0.946188     -1.434769      1.432187
  C       2.475489      1.502804     -0.113751
  C       3.776432      1.923842     -0.413734
  C       4.103452      3.288060     -0.461676
  C       3.108869      4.242331     -0.199697
  C       1.819348      3.833047      0.129774
  C       1.501650      2.474139      0.168569
  C       5.465983      3.759350     -0.859852
  O       5.590560      4.814798     -1.489897
  C       6.668886      2.953143     -0.499095
  C       6.717944      2.170815      0.666491
  C       7.887916      1.492968      1.009215
  C       9.010124      1.570952      0.181814
  C       8.967627      2.343274     -0.984474
  C       7.809789      3.040483     -1.315615
  H       0.896835     -1.418042     -1.189424
  H       1.411661     -0.021908     -2.163959
  H       0.115772      0.160218     -0.960813
  H       2.942070      0.749859      2.052950
  H       4.533985      1.178571     -0.643199
  H       3.361292      5.297704     -0.245001
  H       1.054978      4.572127      0.353142
  H       0.487746      2.168936      0.417074
  H       5.852359      2.114836      1.319951
  H       7.922998      0.904998      1.922120
  H       9.917522      1.034093      0.445022
  H       9.839076      2.401787     -1.630826
  H       7.769834      3.651472     -2.212953
33
Coordinates from ORCA-job Dexketoprofen\Dexketoprofen_TPSS_def2-TZVP\Dexketoprofen_TPSS_def2-TZVP.orcainp E -844.299802267045
  H       3.025027     -0.534796     -0.391796
  C       2.109270      0.019856     -0.137767
  C       1.030424     -0.332884     -1.175739
  C       1.733683     -0.518429      1.250412
  O       2.447411     -0.040365      2.302670
  O       0.891141     -1.370459      1.451840
  C       2.465811      1.500077     -0.125742
  C       3.767755      1.915802     -0.428753
  C       4.101425      3.279056     -0.470630
  C       3.112767      4.236257     -0.198644
  C       1.823308      3.831765      0.136474
  C       1.499152      2.474676      0.169641
  C       5.463348      3.745905     -0.877818
  O       5.587179      4.804960     -1.502048
  C       6.669275      2.950822     -0.501270
  C       6.720365      2.189177      0.678243
  C       7.893299      1.523743      1.034942
  C       9.015761      1.591636      0.207388
  C       8.971878      2.343639     -0.972131
  C       7.811885      3.030288     -1.316588
  H       0.847809     -1.409808     -1.175220
  H       1.371778     -0.029860     -2.169489
  H       0.091273      0.182177     -0.954515
  H       3.068482      0.651580      1.997473
  H       4.518558      1.168222     -0.670591
  H       3.372664      5.289668     -0.240607
  H       1.063890      4.572751      0.369636
  H       0.486668      2.171217      0.424583
  H       5.854007      2.144485      1.331233
  H       7.929385      0.952624      1.958433
  H       9.925156      1.063480      0.481022
  H       9.844440      2.394374     -1.617545
  H       7.767784      3.626343     -2.223427
33
Coordinates from ORCA-job Dexketoprofen\Dexketoprofen_TPSS_def2-TZVP\Dexketoprofen_TPSS_def2-TZVP.orcainp E -844.299883008368
  H       3.027780     -0.530477     -0.388142
  C       2.109231      0.022128     -0.139708
  C       1.031694     -0.338735     -1.175201
  C       1.735202     -0.498656      1.254841
  O       2.512193     -0.069541      2.283834
  O       0.844472     -1.291782      1.482576
  C       2.462907      1.503356     -0.132136
  C       3.766153      1.920894     -0.425925
  C       4.097243      3.285246     -0.465185
  C       3.105084      4.240359     -0.200455
  C       1.814128      3.833449      0.126124
  C       1.492777      2.475923      0.157630
  C       5.461277      3.754760     -0.862638
  O       5.586327      4.807264     -1.497968
  C       6.665669      2.954508     -0.491462
  C       6.717013      2.189325      0.685877
  C       7.888661      1.518828      1.037522
  C       9.008978      1.585471      0.207120
  C       8.964951      2.341271     -0.969984
  C       7.806417      3.032676     -1.309576
  H       0.842603     -1.414570     -1.158440
  H       1.377687     -0.053006     -2.172430
  H       0.094882      0.184851     -0.964876
  H       3.161662      0.586383      1.959066
  H       4.519860      1.174775     -0.663163
  H       3.364549      5.293896     -0.241405
  H       1.051688      4.572654      0.354957
  H       0.480073      2.169420      0.407743
  H       5.851876      2.146949      1.340597
  H       7.924964      0.944693      1.959117
  H       9.917198      1.053125      0.476511
  H       9.836406      2.390620     -1.616967
  H       7.760452      3.631922     -2.214184
33
Coordinates from ORCA-job Dexketoprofen\Dexketoprofen_TPSS_def2-TZVP\Dexketoprofen_TPSS_def2-TZVP.orcainp E -844.299935694638
  H       3.033448     -0.530285     -0.372523
  C       2.112689      0.022145     -0.133518
  C       1.041529     -0.345261     -1.172170
  C       1.727882     -0.480601      1.264416
  O       2.532221     -0.080364      2.283968
  O       0.802467     -1.228897      1.505420
  C       2.463642      1.504768     -0.132685
  C       3.766638      1.923515     -0.424450
  C       4.095213      3.288581     -0.465021
  C       3.100883      4.242687     -0.205317
  C       1.809026      3.834104      0.116438
  C       1.490344      2.475915      0.149927
  C       5.460153      3.760322     -0.856237
  O       5.586264      4.814703     -1.488734
  C       6.663753      2.957095     -0.489077
  C       6.710784      2.178562      0.679565
  C       7.881071      1.503477      1.027155
  C       9.004386      1.580329      0.201521
  C       8.964473      2.349766     -0.966841
  C       7.806766      3.044575     -1.302816
  H       0.848750     -1.420700     -1.148658
  H       1.392406     -0.069292     -2.170467
  H       0.103530      0.180717     -0.972502
  H       3.208790      0.544435      1.953455
  H       4.523129      1.178301     -0.656509
  H       3.357922      5.296903     -0.246957
  H       1.044402      4.572630      0.340344
  H       0.476799      2.168643      0.396337
  H       5.843562      2.127419      1.331025
  H       7.914461      0.918216      1.941822
  H       9.911708      1.044773      0.467645
  H       9.838358      2.406906     -1.609924
  H       7.764611      3.653893     -2.200962
33
Coordinates from ORCA-job Dexketoprofen\Dexketoprofen_TPSS_def2-TZVP\Dexketoprofen_TPSS_def2-TZVP.orcainp E -844.299991930242
  H       3.046203     -0.532631     -0.323617
  C       2.118759      0.020510     -0.117284
  C       1.076083     -0.358884     -1.178527
  C       1.687699     -0.447183      1.278772
  O       2.507380     -0.093382      2.302596
  O       0.704376     -1.117630      1.520959
  C       2.466187      1.505396     -0.124553
  C       3.768881      1.925485     -0.412125
  C       4.093734      3.291390     -0.458169
  C       3.096224      4.244445     -0.206215
  C       1.803073      3.833557      0.108835
  C       1.487910      2.474311      0.145416
  C       5.458240      3.766722     -0.846409
  O       5.583167      4.826351     -1.471518
  C       6.662840      2.960727     -0.488338
  C       6.710194      2.165359      0.668760
  C       7.880815      1.485522      1.006141
  C       9.004418      1.576011      0.181793
  C       8.963830      2.362621     -0.975071
  C       7.805217      3.061105     -1.301102
  H       0.879469     -1.434154     -1.151182
  H       1.449731     -0.095058     -2.171889
  H       0.131780      0.167185     -1.009906
  H       3.236453      0.473008      1.979611
  H       4.529072      1.181497     -0.636747
  H       3.348319      5.299837     -0.249512
  H       1.035508      4.571518      0.324551
  H       0.472576      2.167017      0.385189
  H       5.843875      2.101254      1.320404
  H       7.915373      0.886347      1.911656
  H       9.912133      1.037077      0.439708
  H       9.837559      2.430300     -1.617373
  H       7.764982      3.682349     -2.191186
33
Coordinates from ORCA-job Dexketoprofen\Dexketoprofen_TPSS_def2-TZVP\Dexketoprofen_TPSS_def2-TZVP.orcainp E -844.300016721195
  H       3.043717     -0.533055     -0.319024
  C       2.115635      0.020601     -0.117985
  C       1.074326     -0.360310     -1.178955
  C       1.678030     -0.431336      1.280490
  O       2.537386     -0.140024      2.291951
  O       0.655706     -1.034486      1.537363
  C       2.464296      1.506032     -0.126424
  C       3.766112      1.924956     -0.417944
  C       4.092090      3.290606     -0.464163
  C       3.095869      4.244344     -0.209029
  C       1.803512      3.834162      0.110309
  C       1.487653      2.475054      0.148128
  C       5.456325      3.765024     -0.854331
  O       5.581670      4.826352     -1.476538
  C       6.661150      2.961653     -0.491075
  C       6.707847      2.171496      0.669579
  C       7.878972      1.495234      1.012225
  C       9.003907      1.583626      0.189428
  C       8.963961      2.364785     -0.971194
  C       7.804893      3.060133     -1.302253
  H       0.874125     -1.434947     -1.148064
  H       1.450615     -0.101812     -2.172805
  H       0.131210      0.168930     -1.014324
  H       3.299222      0.374714      1.959156
  H       4.525156      1.180511     -0.644643
  H       3.348554      5.299577     -0.251459
  H       1.037368      4.572631      0.329284
  H       0.472880      2.168442      0.391160
  H       5.840642      2.108919      1.320196
  H       7.913056      0.900516      1.920692
  H       9.912071      1.047465      0.451483
  H       9.838600      2.430859     -1.612418
  H       7.765505      3.677329     -2.195146
33
Coordinates from ORCA-job Dexketoprofen\Dexketoprofen_TPSS_def2-TZVP\Dexketoprofen_TPSS_def2-TZVP.orcainp E -844.300072896384
  H       3.047208     -0.533392     -0.298825
  C       2.116676      0.020651     -0.112936
  C       1.087732     -0.359057     -1.185434
  C       1.650921     -0.414101      1.281140
  O       2.535165     -0.214223      2.293999
  O       0.578332     -0.923929      1.536595
  C       2.465350      1.507650     -0.119513
  C       3.764530      1.926098     -0.421676
  C       4.090801      3.291164     -0.472167
  C       3.095910      4.245504     -0.212098
  C       1.806223      3.835624      0.117986
  C       1.490507      2.476309      0.161422
  C       5.453534      3.763953     -0.868631
  O       5.578449      4.825169     -1.490767
  C       6.658840      2.964309     -0.498872
  C       6.707574      2.187006      0.670162
  C       7.879496      1.515651      1.019442
  C       9.003702      1.594995      0.194671
  C       8.961655      2.362752     -0.974793
  C       7.801918      3.054140     -1.312087
  H       0.888347     -1.434156     -1.161552
  H       1.474320     -0.096562     -2.174427
  H       0.142332      0.168108     -1.028613
  H       3.347127      0.218909      1.965729
  H       4.522185      1.181330     -0.651436
  H       3.347152      5.300937     -0.256377
  H       1.042049      4.574775      0.341475
  H       0.477163      2.170987      0.411973
  H       5.841490      2.130257      1.322817
  H       7.915136      0.931615      1.934773
  H       9.912484      1.062590      0.462145
  H       9.835038      2.422013     -1.618392
  H       7.762716      3.660904     -2.212061
33
Coordinates from ORCA-job Dexketoprofen\Dexketoprofen_TPSS_def2-TZVP\Dexketoprofen_TPSS_def2-TZVP.orcainp E -844.300118905771
  H       3.052045     -0.529771     -0.288036
  C       2.120016      0.023156     -0.109360
  C       1.094273     -0.355619     -1.184948
  C       1.639229     -0.394307      1.284106
  O       2.557828     -0.317467      2.284278
  O       0.519608     -0.782494      1.552313
  C       2.466370      1.511936     -0.117648
  C       3.762641      1.931016     -0.430671
  C       4.088296      3.295659     -0.484727
  C       3.094057      4.249817     -0.220220
  C       1.807587      3.839360      0.120523
  C       1.492977      2.479666      0.169984
  C       5.450485      3.766524     -0.884346
  O       5.576861      4.823805     -1.512135
  C       6.654705      2.969132     -0.505826
  C       6.701893      2.205752      0.672353
  C       7.872723      1.537559      1.031073
  C       8.997891      1.605138      0.206724
  C       8.957618      2.358842     -0.971879
  C       7.799151      3.047868     -1.318365
  H       0.896947     -1.431271     -1.164839
  H       1.483929     -0.089212     -2.171825
  H       0.148588      0.170348     -1.027928
  H       3.415252      0.007563      1.948206
  H       4.519307      1.186408     -0.663551
  H       3.343889      5.305434     -0.267494
  H       1.044723      4.578451      0.348638
  H       0.482335      2.174236      0.430665
  H       5.835032      2.157515      1.324596
  H       7.906566      0.964739      1.953576
  H       9.905747      1.075082      0.481836
  H       9.831287      2.409256     -1.615834
  H       7.762204      3.643858     -2.225571
33
Coordinates from ORCA-job Dexketoprofen\Dexketoprofen_TPSS_def2-TZVP\Dexketoprofen_TPSS_def2-TZVP.orcainp E -844.300143429887
  H       3.061785     -0.525056     -0.265663
  C       2.127261      0.026521     -0.099938
  C       1.111199     -0.352694     -1.185446
  C       1.622350     -0.373620      1.289072
  O       2.552257     -0.420652      2.281097
  O       0.467892     -0.636735      1.562548
  C       2.469203      1.517012     -0.111363
  C       3.763506      1.937993     -0.430598
  C       4.086402      3.302579     -0.490821
  C       3.090720      4.255698     -0.226900
  C       1.806981      3.843659      0.120369
  C       1.494899      2.483293      0.176446
  C       5.447738      3.772399     -0.893744
  O       5.574521      4.822892     -1.531914
  C       6.651375      2.975488     -0.511337
  C       6.699715      2.223970      0.674463
  C       7.869706      1.556715      1.037617
  C       8.993353      1.612695      0.210546
  C       8.952284      2.354766     -0.975315
  C       7.794858      3.043252     -1.326231
  H       0.917495     -1.429154     -1.169066
  H       1.510333     -0.082111     -2.167453
  H       0.164382      0.172066     -1.033821
  H       3.443041     -0.215003      1.938471
  H       4.520805      1.194062     -0.662942
  H       3.338017      5.311659     -0.280159
  H       1.043343      4.581951      0.348539
  H       0.486857      2.176503      0.444789
  H       5.833778      2.184502      1.328391
  H       7.903557      0.993232      1.965895
  H       9.900376      1.083221      0.489416
  H       9.824373      2.396594     -1.622011
  H       7.757697      3.630282     -2.239263
33
Coordinates from ORCA-job Dexketoprofen\Dexketoprofen_TPSS_def2-TZVP\Dexketoprofen_TPSS_def2-TZVP.orcainp E -844.299954183706
  H       3.072946     -0.517086     -0.258773
  C       2.137217      0.031526     -0.090295
  C       1.127846     -0.347604     -1.189680
  C       1.632268     -0.401692      1.288908
  O       2.521473     -0.334285      2.312851
  O       0.502851     -0.789487      1.515082
  C       2.469883      1.519936     -0.103254
  C       3.770739      1.946578     -0.394815
  C       4.086320      3.312506     -0.460638
  C       3.081893      4.262079     -0.219951
  C       1.794188      3.846250      0.103153
  C       1.486035      2.484950      0.156010
  C       5.448549      3.784976     -0.858609
  O       5.573728      4.821526     -1.518729
  C       6.651592      2.976133     -0.497279
  C       6.706618      2.211213      0.680351
  C       7.874915      1.529647      1.022361
  C       8.989710      1.586265      0.183877
  C       8.942640      2.343376     -0.991996
  C       7.787076      3.044123     -1.322901
  H       0.947906     -1.426129     -1.177577
  H       1.534457     -0.063899     -2.164404
  H       0.178817      0.172470     -1.037247
  H       3.399283     -0.054360      1.985459
  H       4.534806      1.204500     -0.610329
  H       3.327498      5.318143     -0.283598
  H       1.021316      4.581086      0.310703
  H       0.476417      2.172143      0.409586
  H       5.845823      2.174111      1.340853
  H       7.912269      0.954417      1.943280
  H       9.894877      1.045390      0.446315
  H       9.808511      2.386279     -1.646928
  H       7.741592      3.642898     -2.228115
33
Coordinates from ORCA-job Dexketoprofen\Dexketoprofen_TPSS_def2-TZVP\Dexketoprofen_TPSS_def2-TZVP.orcainp E -844.300164148984
  H       3.059413     -0.525177     -0.270646
  C       2.125418      0.026348     -0.099978
  C       1.108260     -0.354914     -1.185242
  C       1.629322     -0.384928      1.289650
  O       2.550157     -0.358811      2.289421
  O       0.491531     -0.719821      1.553807
  C       2.467024      1.515634     -0.112125
  C       3.764739      1.936373     -0.418806
  C       4.087000      3.301471     -0.478475
  C       3.089390      4.254651     -0.223402
  C       1.802303      3.842895      0.111796
  C       1.490082      2.482645      0.164782
  C       5.449164      3.772634     -0.877927
  O       5.574979      4.824699     -1.514310
  C       6.653740      2.973116     -0.503671
  C       6.703375      2.209009      0.674190
  C       7.873864      1.537525      1.028028
  C       8.996153      1.602969      0.199719
  C       8.953640      2.357909     -0.977925
  C       7.795523      3.049602     -1.319964
  H       0.914569     -1.431306     -1.165417
  H       1.506493     -0.086811     -2.168094
  H       0.161479      0.170480     -1.034436
  H       3.425477     -0.087592      1.951401
  H       4.524001      1.192194     -0.644477
  H       3.337835      5.310382     -0.276883
  H       1.036010      4.580912      0.331895
  H       0.479343      2.175249      0.422365
  H       5.838214      2.163306      1.328806
  H       7.908966      0.963731      1.949890
  H       9.903528      1.070153      0.471045
  H       9.825226      2.406964     -1.624807
  H       7.755842      3.646490     -2.226542
33
Coordinates from ORCA-job Dexketoprofen\Dexketoprofen_TPSS_def2-TZVP\Dexketoprofen_TPSS_def2-TZVP.orcainp E -844.300175715724
  H       3.062264     -0.524169     -0.260274
  C       2.127249      0.027147     -0.096062
  C       1.115283     -0.356696     -1.185358
  C       1.621176     -0.374817      1.292370
  O       2.545331     -0.387932      2.289265
  O       0.471994     -0.665994      1.559133
  C       2.467474      1.517008     -0.110314
  C       3.765022      1.937957     -0.417074
  C       4.086460      3.303104     -0.478689
  C       3.088200      4.256164     -0.225200
  C       1.801280      3.844103      0.110010
  C       1.489786      2.483655      0.164590
  C       5.448477      3.774365     -0.878394
  O       5.574174      4.826511     -1.514724
  C       6.653255      2.975010     -0.504330
  C       6.703733      2.211699      0.674020
  C       7.874382      1.540231      1.027341
  C       8.996014      1.604893      0.198069
  C       8.952696      2.359117     -0.980002
  C       7.794430      3.050829     -1.321525
  H       0.921439     -1.433103     -1.164052
  H       1.518368     -0.090822     -2.166843
  H       0.167994      0.169215     -1.040041
  H       3.430288     -0.153471      1.949151
  H       4.524858      1.193852     -0.640838
  H       3.336217      5.311930     -0.279721
  H       1.034481      4.581901      0.329068
  H       0.479217      2.175917      0.422342
  H       5.839070      2.166562      1.329312
  H       7.910097      0.967046      1.949558
  H       9.903491      1.072051      0.468997
  H       9.823739      2.407597     -1.627655
  H       7.754121      3.647119     -2.228461
33
Coordinates from ORCA-job Dexketoprofen\Dexketoprofen_TPSS_def2-TZVP\Dexketoprofen_TPSS_def2-TZVP.orcainp E -844.300180751092
  H       3.064755     -0.523434     -0.248197
  C       2.128822      0.027889     -0.090991
  C       1.123695     -0.359263     -1.185914
  C       1.611799     -0.366188      1.295477
  O       2.534928     -0.406525      2.292120
  O       0.454687     -0.625209      1.561247
  C       2.467621      1.518129     -0.107340
  C       3.765867      1.939181     -0.410956
  C       4.086188      3.304484     -0.475199
  C       3.086677      4.257501     -0.226129
  C       1.799050      3.845276      0.105933
  C       1.488360      2.484636      0.161931
  C       5.448146      3.776244     -0.874554
  O       5.573249      4.829305     -1.509747
  C       6.653581      2.976640     -0.503106
  C       6.706066      2.211469      0.673969
  C       7.877280      1.539189      1.023888
  C       8.997309      1.605128      0.192509
  C       8.951951      2.361297     -0.984230
  C       7.793095      3.053652     -1.322459
  H       0.929072     -1.435562     -1.162029
  H       1.533287     -0.097113     -2.165672
  H       0.175859      0.167775     -1.048486
  H       3.426140     -0.197776      1.951694
  H       4.526833      1.195040     -0.630631
  H       3.334477      5.313235     -0.282160
  H       1.030938      4.582823      0.321222
  H       0.477147      2.176457      0.416611
  H       5.842592      2.165526      1.330781
  H       7.914665      0.964454      1.945065
  H       9.905193      1.071585      0.460708
  H       9.821859      2.410719     -1.633341
  H       7.750872      3.651416     -2.228346
33
Coordinates from ORCA-job Dexketoprofen\Dexketoprofen_TPSS_def2-TZVP\Dexketoprofen_TPSS_def2-TZVP.orcainp E -844.300184135447
  H       3.064539     -0.523886     -0.244913
  C       2.128473      0.027707     -0.089601
  C       1.126127     -0.360844     -1.186834
  C       1.608813     -0.366395      1.295942
  O       2.528264     -0.395121      2.295965
  O       0.452970     -0.635137      1.557585
  C       2.467257      1.517777     -0.106305
  C       3.766244      1.938674     -0.407135
  C       4.086386      3.304072     -0.471764
  C       3.086386      4.257201     -0.225056
  C       1.797975      3.845122      0.104157
  C       1.487297      2.484483      0.159745
  C       5.448448      3.776348     -0.870303
  O       5.573138      4.830779     -1.503555
  C       6.654326      2.976277     -0.501448
  C       6.708044      2.208221      0.673688
  C       7.879744      1.535221      1.020621
  C       8.998848      1.603555      0.188149
  C       8.952200      2.362660     -0.986650
  C       7.792829      3.055584     -1.321962
  H       0.930740     -1.436981     -1.161433
  H       1.538394     -0.100871     -2.166017
  H       0.178065      0.166873     -1.053209
  H       3.418204     -0.177199      1.957860
  H       4.527709      1.194409     -0.624698
  H       3.334476      5.312863     -0.281030
  H       1.029247      4.582630      0.317368
  H       0.475380      2.176269      0.411632
  H       5.845284      2.160590      1.331335
  H       7.918279      0.958152      1.940280
  H       9.907110      1.069440      0.453939
  H       9.821525      2.413872     -1.636407
  H       7.749339      3.655636     -2.226277
33
Coordinates from ORCA-job Dexketoprofen\Dexketoprofen_TPSS_def2-TZVP\Dexketoprofen_TPSS_def2-TZVP.orcainp E -844.300185532764
  H       3.064860     -0.524522     -0.238544
  C       2.128408      0.027503     -0.087384
  C       1.131069     -0.362405     -1.188822
  C       1.602634     -0.365449      1.296185
  O       2.516810     -0.388065      2.300921
  O       0.446399     -0.638156      1.552047
  C       2.467251      1.517475     -0.104162
  C       3.766758      1.938309     -0.402974
  C       4.086619      3.303772     -0.468366
  C       3.086113      4.256941     -0.223658
  C       1.797187      3.844939      0.103537
  C       1.486658      2.484268      0.159171
  C       5.448601      3.776639     -0.866519
  O       5.572755      4.832382     -1.497875
  C       6.654999      2.976207     -0.500359
  C       6.710645      2.206512      0.673584
  C       7.882993      1.533089      1.017540
  C       9.000644      1.602749      0.183202
  C       8.952016      2.363512     -0.990450
  C       7.792019      3.056834     -1.322804
  H       0.934490     -1.438311     -1.162059
  H       1.548251     -0.105031     -2.166610
  H       0.182715      0.166362     -1.061234
  H       3.407357     -0.167273      1.966229
  H       4.528624      1.193952     -0.618819
  H       3.334277      5.312551     -0.279889
  H       1.027901      4.582379      0.314939
  H       0.474205      2.175988      0.408929
  H       5.849029      2.157942      1.332677
  H       7.923242      0.954702      1.936289
  H       9.909403      1.068287      0.446607
  H       9.820308      2.415669     -1.641518
  H       7.746819      3.658228     -2.226139
