33
Coordinates from ORCA-job Ibuprofeno\Ibuprofeno_B3LYP_STO-3G\Ibuprofeno_B3LYP_STO-3G.orcainp E -648.055030655111
  C       2.615810     -3.881330     -0.544390
  C       2.307120     -2.534530     -1.200720
  C       0.789780     -2.325080     -1.255190
  C       2.978920     -1.370430     -0.447280
  C       4.490140     -1.439920     -0.370820
  C       5.281320     -1.441820     -1.524240
  C       6.680610     -1.411590     -1.431940
  C       7.317870     -1.361580     -0.182740
  C       6.521380     -1.411350      0.969350
  C       5.125330     -1.449260      0.876070
  C       8.830310     -1.146890     -0.098380
  C       9.116510      0.173090      0.628470
  C       9.668650     -2.261290      0.535720
  O       9.020710     -3.411850      0.829730
  O      10.867830     -2.143950      0.743800
  H       2.116990     -4.695670     -1.079990
  H       2.277010     -3.900830      0.496880
  H       3.689440     -4.092520     -0.557780
  H       2.675530     -2.563670     -2.233340
  H       0.364370     -2.213730     -0.251480
  H       0.295360     -3.176140     -1.736190
  H       0.539550     -1.427320     -1.830200
  H       2.564500     -1.317470      0.568540
  H       2.712210     -0.417340     -0.923590
  H       4.818420     -1.432080     -2.508030
  H       7.259780     -1.385460     -2.352840
  H       6.970710     -1.378450      1.961830
  H       4.537820     -1.454480      1.791310
  H       9.211530     -1.059550     -1.121920
  H       8.730040      0.169410      1.652520
  H       8.655240      1.016480      0.100850
  H      10.191910      0.368920      0.694490
  H       8.074670     -3.423970      0.602960
33
Coordinates from ORCA-job Ibuprofeno\Ibuprofeno_B3LYP_STO-3G\Ibuprofeno_B3LYP_STO-3G.orcainp E -648.072649011166
  C       2.588692     -3.938391     -0.554430
  C       2.267012     -2.563386     -1.211099
  C       0.724632     -2.347875     -1.284468
  C       2.936696     -1.377422     -0.435605
  C       4.476870     -1.424066     -0.352789
  C       5.276514     -1.406936     -1.518268
  C       6.681649     -1.359909     -1.431094
  C       7.333094     -1.314901     -0.176614
  C       6.534058     -1.369756      0.989556
  C       5.129247     -1.425704      0.901731
  C       8.868320     -1.120502     -0.102300
  C       9.221731      0.218270      0.621379
  C       9.695487     -2.308548      0.554649
  O       8.999151     -3.468284      0.873380
  O      10.926276     -2.240657      0.773099
  H       2.096362     -4.755157     -1.105799
  H       2.236961     -3.968706      0.489011
  H       3.670786     -4.138562     -0.557891
  H       2.653994     -2.576509     -2.248431
  H       0.289444     -2.251141     -0.277146
  H       0.235510     -3.198086     -1.785888
  H       0.480319     -1.434696     -1.850992
  H       2.518596     -1.338313      0.585460
  H       2.648635     -0.424382     -0.921956
  H       4.803410     -1.404382     -2.510800
  H       7.269318     -1.329269     -2.360432
  H       6.999066     -1.344081      1.985672
  H       4.537182     -1.445661      1.827970
  H       9.242552     -1.045359     -1.143493
  H       8.845595      0.229053      1.656390
  H       8.782398      1.077332      0.089897
  H      10.314066      0.362589      0.662582
  H       8.013749     -3.368254      0.620175
33
Coordinates from ORCA-job Ibuprofeno\Ibuprofeno_B3LYP_STO-3G\Ibuprofeno_B3LYP_STO-3G.orcainp E -648.075323903383
  C       2.612494     -3.957552     -0.534651
  C       2.280814     -2.586045     -1.204220
  C       0.733962     -2.384482     -1.308175
  C       2.920462     -1.383109     -0.419339
  C       4.465472     -1.400446     -0.339476
  C       5.260830     -1.360860     -1.512070
  C       6.665291     -1.298438     -1.433666
  C       7.326061     -1.265149     -0.180741
  C       6.532795     -1.324537      0.993139
  C       5.127443     -1.395104      0.912833
  C       8.866066     -1.109449     -0.114916
  C       9.285406      0.209920      0.618438
  C       9.635357     -2.347327      0.551132
  O       8.873032     -3.488510      0.859984
  O      10.868430     -2.347122      0.786560
  H       2.142320     -4.781078     -1.094968
  H       2.237925     -3.986552      0.500843
  H       3.698836     -4.133761     -0.515012
  H       2.692545     -2.591800     -2.232094
  H       0.282112     -2.304658     -0.306741
  H       0.268442     -3.235893     -1.829338
  H       0.496153     -1.465970     -1.867872
  H       2.505393     -1.360716      0.603656
  H       2.609115     -0.442066     -0.912965
  H       4.779131     -1.363909     -2.500169
  H       7.253408     -1.260478     -2.362051
  H       7.010292     -1.303991      1.983353
  H       4.537811     -1.429342      1.840122
  H       9.241405     -1.049385     -1.156342
  H       8.907188      0.225789      1.652727
  H       8.885380      1.087991      0.087447
  H      10.384064      0.289824      0.651418
  H       7.911934     -3.257442      0.584615
33
Coordinates from ORCA-job Ibuprofeno\Ibuprofeno_B3LYP_STO-3G\Ibuprofeno_B3LYP_STO-3G.orcainp E -648.075992203571
  C       2.642201     -3.955788     -0.484941
  C       2.303960     -2.605093     -1.190724
  C       0.757756     -2.426047     -1.330425
  C       2.911729     -1.376911     -0.418224
  C       4.455543     -1.367216     -0.338335
  C       5.248116     -1.318148     -1.512902
  C       6.651104     -1.252173     -1.437889
  C       7.314705     -1.227192     -0.185749
  C       6.523689     -1.285422      0.990279
  C       5.119038     -1.356694      0.912124
  C       8.855596     -1.102532     -0.121894
  C       9.318555      0.183867      0.641973
  C       9.580749     -2.379617      0.523511
  O       8.774350     -3.515776      0.777166
  O      10.805989     -2.421632      0.784922
  H       2.198769     -4.797303     -1.039678
  H       2.242147     -3.967015      0.541023
  H       3.730972     -4.107726     -0.435703
  H       2.740438     -2.623229     -2.207697
  H       0.285704     -2.348557     -0.338504
  H       0.318287     -3.287218     -1.857603
  H       0.523145     -1.512639     -1.899022
  H       2.497808     -1.353930      0.604595
  H       2.581488     -0.452409     -0.929077
  H       4.761670     -1.321723     -2.498468
  H       7.241791     -1.209273     -2.364187
  H       7.007248     -1.262682      1.977308
  H       4.528500     -1.394000      1.838520
  H       9.233777     -1.035957     -1.161106
  H       8.936010      0.186276      1.674163
  H       8.950132      1.084512      0.126621
  H      10.419186      0.217193      0.674327
  H       7.837219     -3.209596      0.487056
33
Coordinates from ORCA-job Ibuprofeno\Ibuprofeno_B3LYP_STO-3G\Ibuprofeno_B3LYP_STO-3G.orcainp E -648.076304210281
  C       2.676935     -3.938986     -0.419661
  C       2.325929     -2.619864     -1.175555
  C       0.780359     -2.472760     -1.346538
  C       2.902488     -1.358922     -0.432820
  C       4.444338     -1.325910     -0.348519
  C       5.238372     -1.273913     -1.521637
  C       6.640712     -1.211731     -1.444095
  C       7.301889     -1.196087     -0.190326
  C       6.508499     -1.249441      0.984101
  C       5.104313     -1.314701      0.902959
  C       8.843713     -1.099710     -0.122076
  C       9.335236      0.150169      0.681718
  C       9.538688     -2.411559      0.484844
  O       8.711954     -3.552328      0.656917
  O      10.753217     -2.477744      0.780532
  H       2.264380     -4.807392     -0.956105
  H       2.254153     -3.925097      0.596932
  H       3.767830     -4.062799     -0.341592
  H       2.781972     -2.662216     -2.182928
  H       0.289723     -2.386687     -0.364539
  H       0.367137     -3.351465     -1.865632
  H       0.540550     -1.574023     -1.935612
  H       2.485500     -1.320076      0.588070
  H       2.557424     -0.454932     -0.969138
  H       4.752170     -1.275919     -2.507049
  H       7.235693     -1.169000     -2.367369
  H       6.992493     -1.232916      1.970733
  H       4.510612     -1.353582      1.826960
  H       9.225703     -1.012152     -1.158096
  H       8.947828      0.130600      1.711599
  H       8.992626      1.074575      0.191558
  H      10.435986      0.151495      0.717935
  H       7.788950     -3.216577      0.355889
33
Coordinates from ORCA-job Ibuprofeno\Ibuprofeno_B3LYP_STO-3G\Ibuprofeno_B3LYP_STO-3G.orcainp E -648.076533024142
  C       2.707856     -3.912458     -0.335335
  C       2.348423     -2.635076     -1.155838
  C       0.805068     -2.522309     -1.362206
  C       2.894479     -1.335518     -0.457307
  C       4.434363     -1.286980     -0.365786
  C       5.231647     -1.228430     -1.535910
  C       6.633628     -1.172645     -1.452906
  C       7.289524     -1.170136     -0.196115
  C       6.492195     -1.226892      0.974889
  C       5.088789     -1.284961      0.888277
  C       8.831496     -1.094480     -0.119361
  C       9.344082      0.114400      0.730767
  C       9.499679     -2.440349      0.439735
  O       8.663158     -3.586704      0.502542
  O      10.697627     -2.527293      0.788073
  H       2.329549     -4.812798     -0.843574
  H       2.258046     -3.864548      0.668519
  H       3.799224     -4.005937     -0.223825
  H       2.826074     -2.713336     -2.150965
  H       0.292782     -2.419989     -0.392931
  H       0.419056     -3.422159     -1.865779
  H       0.561263     -1.644108     -1.979860
  H       2.470793     -1.267179      0.559198
  H       2.539430     -0.457456     -1.028386
  H       4.747220     -1.220148     -2.522129
  H       7.234250     -1.123929     -2.372196
  H       6.974693     -1.223821      1.962211
  H       4.490385     -1.327186      1.808999
  H       9.219167     -0.977458     -1.150548
  H       8.949191      0.067781      1.756743
  H       9.026964      1.063255      0.271289
  H      10.444163      0.087633      0.774259
  H       7.753106     -3.230435      0.186917
33
Coordinates from ORCA-job Ibuprofeno\Ibuprofeno_B3LYP_STO-3G\Ibuprofeno_B3LYP_STO-3G.orcainp E -648.076679721899
  C       2.742949     -3.879325     -0.246228
  C       2.372567     -2.650384     -1.133565
  C       0.831717     -2.578456     -1.371496
  C       2.886305     -1.309262     -0.489242
  C       4.424135     -1.245640     -0.386950
  C       5.226655     -1.175028     -1.552261
  C       6.628386     -1.126063     -1.460866
  C       7.276403     -1.143626     -0.200069
  C       6.473170     -1.208888      0.966067
  C       5.070724     -1.259394      0.871287
  C       8.818334     -1.091139     -0.112885
  C       9.352322      0.075318      0.780163
  C       9.453361     -2.470894      0.399675
  O       8.613677     -3.614340      0.330662
  O      10.628732     -2.587802      0.809704
  H       2.400072     -4.812181     -0.719893
  H       2.268032     -3.797018      0.743784
  H       3.833738     -3.938829     -0.105488
  H       2.869870     -2.767549     -2.115279
  H       0.298734     -2.457393     -0.415591
  H       0.474574     -3.501944     -1.853217
  H       0.580443     -1.725783     -2.021157
  H       2.451537     -1.202409      0.519290
  H       2.524098     -0.463177     -1.101915
  H       4.746169     -1.154198     -2.540290
  H       7.235807     -1.069924     -2.375306
  H       6.951714     -1.225020      1.955106
  H       4.466166     -1.310300      1.787523
  H       9.213256     -0.946322     -1.138117
  H       8.947454      0.006853      1.800978
  H       9.065569      1.047062      0.349506
  H      10.450784      0.017285      0.833189
  H       7.719919     -3.235882     -0.005658
33
Coordinates from ORCA-job Ibuprofeno\Ibuprofeno_B3LYP_STO-3G\Ibuprofeno_B3LYP_STO-3G.orcainp E -648.076759342956
  C       2.758127     -3.864642     -0.208941
  C       2.379355     -2.658412     -1.123691
  C       0.838286     -2.605163     -1.365330
  C       2.882571     -1.296863     -0.512090
  C       4.419939     -1.224724     -0.400987
  C       5.226963     -1.141309     -1.561971
  C       6.629062     -1.097962     -1.464114
  C       7.271992     -1.132714     -0.201020
  C       6.463907     -1.208092      0.961426
  C       5.061550     -1.254844      0.860317
  C       8.814963     -1.091844     -0.109104
  C       9.357852      0.057824      0.798854
  C       9.435822     -2.484667      0.386201
  O       8.600959     -3.624256      0.257342
  O      10.590767     -2.611457      0.849082
  H       2.426760     -4.810809     -0.664204
  H       2.278507     -3.766966      0.777420
  H       3.848333     -3.911071     -0.063181
  H       2.878943     -2.795284     -2.101815
  H       0.301565     -2.475068     -0.412645
  H       0.490996     -3.539160     -1.833939
  H       0.579350     -1.765061     -2.028330
  H       2.439669     -1.164573      0.489974
  H       2.520738     -0.470242     -1.150649
  H       4.750289     -1.108432     -2.551584
  H       7.240192     -1.033193     -2.375555
  H       6.938312     -1.238468      1.952127
  H       4.452982     -1.315252      1.773341
  H       9.212250     -0.937482     -1.132227
  H       8.946764     -0.014883      1.816941
  H       9.087313      1.038127      0.377157
  H      10.455130     -0.015157      0.858740
  H       7.717162     -3.239551     -0.096085
33
Coordinates from ORCA-job Ibuprofeno\Ibuprofeno_B3LYP_STO-3G\Ibuprofeno_B3LYP_STO-3G.orcainp E -648.076866759972
  C       2.767062     -3.846741     -0.164162
  C       2.382172     -2.667448     -1.111299
  C       0.840005     -2.627159     -1.350768
  C       2.881209     -1.283905     -0.545150
  C       4.417807     -1.209375     -0.420710
  C       5.232495     -1.107899     -1.574374
  C       6.634747     -1.070184     -1.465796
  C       7.268832     -1.128180     -0.199231
  C       6.452796     -1.221409      0.956721
  C       5.050996     -1.263753      0.845083
  C       8.812427     -1.092456     -0.098968
  C       9.355679      0.046331      0.821042
  C       9.421543     -2.494275      0.387586
  O       8.618519     -3.637488      0.153642
  O      10.552401     -2.628902      0.906762
  H       2.440065     -4.806128     -0.594463
  H       2.287331     -3.726181      0.819641
  H       3.857472     -3.885437     -0.018192
  H       2.879500     -2.832536     -2.086495
  H       0.303470     -2.479435     -0.400456
  H       0.496783     -3.572784     -1.798779
  H       0.574499     -1.803172     -2.031351
  H       2.426278     -1.112363      0.445733
  H       2.527687     -0.483748     -1.220690
  H       4.762751     -1.056371     -2.566655
  H       7.251407     -0.990387     -2.372425
  H       6.919615     -1.268559      1.950505
  H       4.435929     -1.337024      1.752934
  H       9.213248     -0.930421     -1.119765
  H       8.932656     -0.026481      1.834390
  H       9.100952      1.032079      0.402073
  H      10.451422     -0.037912      0.894686
  H       7.747619     -3.251945     -0.229610
33
Coordinates from ORCA-job Ibuprofeno\Ibuprofeno_B3LYP_STO-3G\Ibuprofeno_B3LYP_STO-3G.orcainp E -648.076938274332
  C       2.769860     -3.824720     -0.107090
  C       2.386117     -2.678304     -1.094349
  C       0.843429     -2.643647     -1.333782
  C       2.885130     -1.274502     -0.581185
  C       4.419966     -1.204853     -0.445290
  C       5.241651     -1.079465     -1.590953
  C       6.643272     -1.041506     -1.471413
  C       7.267638     -1.126819     -0.202150
  C       6.444505     -1.248276      0.945848
  C       5.044332     -1.287098      0.823717
  C       8.809924     -1.089309     -0.090168
  C       9.345455      0.037137      0.848591
  C       9.404979     -2.500542      0.384791
  O       8.643944     -3.642000      0.030122
  O      10.489494     -2.645330      0.993707
  H       2.440883     -4.797091     -0.505592
  H       2.290304     -3.670889      0.872147
  H       3.861196     -3.860493      0.039779
  H       2.881705     -2.878948     -2.063938
  H       0.307485     -2.467024     -0.388079
  H       0.499567     -3.602129     -1.753125
  H       0.577589     -1.840399     -2.038632
  H       2.419176     -1.057405      0.395635
  H       2.543865     -0.505140     -1.297194
  H       4.778766     -1.005889     -2.585134
  H       7.265365     -0.940638     -2.372251
  H       6.904047     -1.315449      1.941998
  H       4.422842     -1.378163      1.725639
  H       9.217275     -0.915553     -1.106453
  H       8.904377     -0.041368      1.853865
  H       9.105221      1.028443      0.434177
  H      10.439116     -0.055769      0.940999
  H       7.798893     -3.248514     -0.402778
33
Coordinates from ORCA-job Ibuprofeno\Ibuprofeno_B3LYP_STO-3G\Ibuprofeno_B3LYP_STO-3G.orcainp E -648.076994670022
  C       2.728433     -3.852193     -0.138816
  C       2.363953     -2.680098     -1.102355
  C       0.819303     -2.606935     -1.321550
  C       2.895003     -1.293569     -0.574363
  C       4.431837     -1.232497     -0.440805
  C       5.252398     -1.097413     -1.586758
  C       6.654742     -1.051109     -1.470172
  C       7.283094     -1.137237     -0.203296
  C       6.461796     -1.272085      0.945002
  C       5.060790     -1.318439      0.825831
  C       8.826373     -1.085237     -0.091458
  C       9.340904      0.068211      0.827168
  C       9.437136     -2.476795      0.417151
  O       8.694054     -3.636317      0.081293
  O      10.512215     -2.592868      1.048054
  H       2.363456     -4.807113     -0.547905
  H       2.268070     -3.699152      0.849677
  H       3.818195     -3.924143     -0.008121
  H       2.842968     -2.874704     -2.081314
  H       0.300751     -2.422860     -0.367697
  H       0.447211     -3.554456     -1.741624
  H       0.564118     -1.793279     -2.018229
  H       2.433209     -1.080639      0.405187
  H       2.564990     -0.512846     -1.283360
  H       4.788555     -1.021873     -2.580257
  H       7.272627     -0.942973     -2.372991
  H       6.922707     -1.341369      1.940376
  H       4.442818     -1.418463      1.729149
  H       9.233775     -0.928457     -1.110219
  H       8.894075      0.002170      1.830729
  H       9.086884      1.046626      0.390961
  H      10.435315     -0.005130      0.927336
  H       7.855614     -3.258410     -0.375166
33
Coordinates from ORCA-job Ibuprofeno\Ibuprofeno_B3LYP_STO-3G\Ibuprofeno_B3LYP_STO-3G.orcainp E -648.077034368939
  C       2.736984     -3.841443     -0.120090
  C       2.372557     -2.680918     -1.097261
  C       0.829437     -2.617887     -1.329028
  C       2.893286     -1.288860     -0.574615
  C       4.428924     -1.224815     -0.441209
  C       5.248538     -1.085030     -1.586882
  C       6.650567     -1.041490     -1.471014
  C       7.278787     -1.134376     -0.204741
  C       6.458319     -1.271565      0.943312
  C       5.057826     -1.316355      0.824678
  C       8.821397     -1.088089     -0.090778
  C       9.340244      0.061565      0.830112
  C       9.421277     -2.483595      0.416783
  O       8.685017     -3.639772      0.048563
  O      10.482648     -2.607159      1.067618
  H       2.380868     -4.802655     -0.522091
  H       2.268410     -3.681048      0.863341
  H       3.826858     -3.904487      0.019666
  H       2.860408     -2.880507     -2.070721
  H       0.303339     -2.426541     -0.380798
  H       0.465035     -3.571487     -1.741918
  H       0.575915     -1.812594     -2.035885
  H       2.430435     -1.075148      0.404186
  H       2.559936     -0.511419     -1.285526
  H       4.784004     -1.006296     -2.579777
  H       7.268624     -0.930731     -2.373351
  H       6.920359     -1.348307      1.937493
  H       4.440076     -1.421477      1.727486
  H       9.231794     -0.932210     -1.108518
  H       8.891112     -0.004443      1.832492
  H       9.091109      1.041543      0.394708
  H      10.434053     -0.016994      0.931875
  H       7.859229     -3.257062     -0.426651
33
Coordinates from ORCA-job Ibuprofeno\Ibuprofeno_B3LYP_STO-3G\Ibuprofeno_B3LYP_STO-3G.orcainp E -648.077056684310
  C       2.734649     -3.836471     -0.110674
  C       2.376116     -2.680009     -1.094639
  C       0.834998     -2.619241     -1.339135
  C       2.892062     -1.287771     -0.568369
  C       4.427354     -1.222781     -0.436731
  C       5.244767     -1.078327     -1.583225
  C       6.646883     -1.036746     -1.470292
  C       7.277229     -1.137105     -0.205849
  C       6.459133     -1.278914      0.943054
  C       5.058506     -1.321275      0.827340
  C       8.819693     -1.092013     -0.091512
  C       9.337803      0.062906      0.823293
  C       9.416594     -2.484569      0.424471
  O       8.694694     -3.644131      0.033959
  O      10.463415     -2.605269      1.097699
  H       2.382448     -4.799951     -0.510564
  H       2.258855     -3.671690      0.868554
  H       3.823818     -3.897175      0.037767
  H       2.872560     -2.880613     -2.063494
  H       0.302025     -2.419718     -0.396448
  H       0.473588     -3.576301     -1.746493
  H       0.587364     -1.819922     -2.054771
  H       2.430284     -1.079844      0.412206
  H       2.556000     -0.507218     -1.274555
  H       4.778144     -0.994357     -2.574696
  H       7.263433     -0.921497     -2.373064
  H       6.923806     -1.361240      1.935537
  H       4.442518     -1.430251      1.730865
  H       9.231580     -0.942250     -1.109630
  H       8.888788      0.000226      1.825929
  H       9.086129      1.040061      0.383101
  H      10.431738     -0.012826      0.924897
  H       7.880394     -3.265366     -0.463071
33
Coordinates from ORCA-job Ibuprofeno\Ibuprofeno_B3LYP_STO-3G\Ibuprofeno_B3LYP_STO-3G.orcainp E -648.077071476716
  C       2.722744     -3.839974     -0.114565
  C       2.374120     -2.677891     -1.095493
  C       0.834905     -2.610572     -1.349402
  C       2.892027     -1.291041     -0.557068
  C       4.427874     -1.227670     -0.428464
  C       5.242457     -1.081181     -1.576803
  C       6.644877     -1.039860     -1.467882
  C       7.278702     -1.142929     -0.205502
  C       6.463707     -1.287480      0.945284
  C       5.062551     -1.329317      0.833584
  C       8.821431     -1.094351     -0.093606
  C       9.335965      0.071200      0.809948
  C       9.423826     -2.479294      0.434580
  O       8.712602     -3.646192      0.045277
  O      10.466171     -2.589762      1.116143
  H       2.369717     -4.800874     -0.519864
  H       2.241701     -3.676972      0.862409
  H       3.810675     -3.904887      0.040470
  H       2.876397     -2.874854     -2.062079
  H       0.297286     -2.407093     -0.410193
  H       0.471430     -3.566572     -1.757393
  H       0.595437     -1.811204     -2.067760
  H       2.433234     -1.093721      0.427126
  H       2.554490     -0.502059     -1.253180
  H       4.773074     -0.994453     -2.566740
  H       7.259016     -0.922273     -2.372000
  H       6.931556     -1.371402      1.936154
  H       4.449154     -1.439634      1.738721
  H       9.231972     -0.952631     -1.113473
  H       8.891104      0.012992      1.814726
  H       9.075509      1.043003      0.363077
  H      10.430770      0.004124      0.907807
  H       7.900887     -3.276827     -0.462382
33
Coordinates from ORCA-job Ibuprofeno\Ibuprofeno_B3LYP_STO-3G\Ibuprofeno_B3LYP_STO-3G.orcainp E -648.077081993186
  C       2.709330     -3.843180     -0.114265
  C       2.371297     -2.677220     -1.094473
  C       0.833799     -2.602165     -1.356421
  C       2.892843     -1.294010     -0.549772
  C       4.429310     -1.233089     -0.423022
  C       5.241919     -1.080681     -1.572075
  C       6.644682     -1.039242     -1.465546
  C       7.280707     -1.148304     -0.204897
  C       6.467915     -1.299695      0.946593
  C       5.066415     -1.341407      0.837371
  C       8.823673     -1.096078     -0.094840
  C       9.334155      0.079964      0.797478
  C       9.429517     -2.473972      0.446413
  O       8.735811     -3.647533      0.046564
  O      10.459913     -2.575340      1.147765
  H       2.354870     -4.801886     -0.523548
  H       2.223224     -3.680278      0.860232
  H       3.795873     -3.913040      0.046979
  H       2.877921     -2.874386     -2.058783
  H       0.292232     -2.392760     -0.420761
  H       0.467098     -3.557410     -1.763366
  H       0.602443     -1.803773     -2.078531
  H       2.435807     -1.101194      0.436171
  H       2.555725     -0.500564     -1.241006
  H       4.770678     -0.988516     -2.560662
  H       7.257095     -0.916919     -2.370229
  H       6.937859     -1.387993      1.936151
  H       4.454766     -1.456084      1.743187
  H       9.232852     -0.962778     -1.116441
  H       8.892437      0.027238      1.804016
  H       9.066267      1.046437      0.343459
  H      10.429636      0.020852      0.892933
  H       7.929302     -3.286640     -0.475214
33
Coordinates from ORCA-job Ibuprofeno\Ibuprofeno_B3LYP_STO-3G\Ibuprofeno_B3LYP_STO-3G.orcainp E -648.077084390617
  C       2.703437     -3.845905     -0.117336
  C       2.369333     -2.676365     -1.094689
  C       0.832345     -2.597146     -1.358528
  C       2.893427     -1.295637     -0.546010
  C       4.430272     -1.236348     -0.420423
  C       5.242065     -1.083064     -1.570030
  C       6.644952     -1.041450     -1.464406
  C       7.281890     -1.151121     -0.204242
  C       6.469977     -1.303761      0.947725
  C       5.068317     -1.345804      0.839428
  C       8.825032     -1.096317     -0.095698
  C       9.333720      0.084275      0.791607
  C       9.433426     -2.470923      0.451068
  O       8.744467     -3.647381      0.052804
  O      10.462268     -2.567723      1.155770
  H       2.349327     -4.802893     -0.530952
  H       2.214724     -3.686043      0.856360
  H       3.789430     -3.917431      0.046530
  H       2.876756     -2.872389     -2.058824
  H       0.289690     -2.388359     -0.423350
  H       0.464010     -3.550721     -1.767939
  H       0.603772     -1.796817     -2.079399
  H       2.437534     -1.105138      0.440918
  H       2.556530     -0.499793     -1.234623
  H       4.770046     -0.990022     -2.558173
  H       7.256718     -0.918220     -2.369407
  H       6.940660     -1.392260      1.936940
  H       4.457300     -1.461270      1.745582
  H       9.233012     -0.966370     -1.118195
  H       8.894797      0.033275      1.799493
  H       9.061361      1.048450      0.335344
  H      10.429654      0.029418      0.884521
  H       7.937119     -3.290398     -0.470408
33
Coordinates from ORCA-job Ibuprofeno\Ibuprofeno_B3LYP_STO-3G\Ibuprofeno_B3LYP_STO-3G.orcainp E -648.077085396641
  C       2.702404     -3.846586     -0.118369
  C       2.368893     -2.675883     -1.094543
  C       0.831969     -2.595744     -1.358497
  C       2.893688     -1.295788     -0.544983
  C       4.430597     -1.237158     -0.419889
  C       5.242177     -1.083591     -1.569623
  C       6.645067     -1.042017     -1.464071
  C       7.282108     -1.152013     -0.203960
  C       6.470419     -1.305025      0.948053
  C       5.068753     -1.347043      0.839848
  C       8.825302     -1.096586     -0.095919
  C       9.333698      0.085573      0.789407
  C       9.433563     -2.470266      0.453361
  O       8.746649     -3.647465      0.054142
  O      10.460791     -2.565838      1.160725
  H       2.349945     -4.803192     -0.534295
  H       2.211890     -3.688963      0.854781
  H       3.788222     -3.917350      0.047058
  H       2.876219     -2.871509     -2.058816
  H       0.289050     -2.388418     -0.423144
  H       0.463477     -3.548522     -1.769638
  H       0.603709     -1.794140     -2.078055
  H       2.438182     -1.105492      0.442156
  H       2.556799     -0.499603     -1.233212
  H       4.769987     -0.990344     -2.557664
  H       7.256773     -0.918644     -2.369095
  H       6.941204     -1.393790      1.937206
  H       4.457787     -1.462868      1.745992
  H       9.232924     -0.968245     -1.118742
  H       8.896208      0.035143      1.797951
  H       9.059561      1.048967      0.332541
  H      10.429827      0.032257      0.880935
  H       7.939529     -3.291508     -0.470182
