33
Coordinates from ORCA-job Dexketoprofen\Dexketoprofen_PBE_6-311+G\Dexketoprofen_PBE_6-311+G.orcainp E -843.042787521582
  H       1.205510      0.106850      0.445940
  C       2.196320      0.045060     -0.027830
  C       3.215720     -0.371090      1.031860
  C       2.034390     -1.051080     -1.085020
  O       1.513210     -2.199030     -0.581510
  O       2.303240     -0.955460     -2.273920
  C       2.507100      1.445930     -0.548900
  C       3.407860      1.701540     -1.598070
  C       3.576350      3.004310     -2.103220
  C       2.939750      4.077830     -1.473650
  C       2.107020      3.849040     -0.381590
  C       1.883670      2.545380      0.066430
  C       4.403860      3.296060     -3.309210
  O       4.983480      4.375140     -3.393750
  C       4.526090      2.313290     -4.425170
  C       5.680660      2.330250     -5.217310
  C       5.847530      1.382920     -6.230560
  C       4.862400      0.421870     -6.457420
  C       3.694460      0.428730     -5.701060
  C       3.514180      1.385340     -4.704580
  H       2.941690     -1.324460      1.496910
  H       3.278340      0.374480      1.832120
  H       4.214970     -0.493660      0.600960
  H       1.291830     -2.173610      0.368700
  H       3.956390      0.877100     -2.049120
  H       3.084080      5.092740     -1.840300
  H       1.617950      4.686120      0.111160
  H       1.212180      2.396120      0.909520
  H       6.455970      3.073430     -5.041220
  H       6.751130      1.388170     -6.835190
  H       5.003080     -0.332090     -7.228590
  H       2.921740     -0.316960     -5.873750
  H       2.580390      1.380130     -4.147190
33
Coordinates from ORCA-job Dexketoprofen\Dexketoprofen_PBE_6-311+G\Dexketoprofen_PBE_6-311+G.orcainp E -843.047185383247
  H       1.239114      0.116392      0.577120
  C       2.191047      0.051669      0.018902
  C       3.308221     -0.346717      1.007000
  C       1.951811     -1.056600     -1.015745
  O       1.485787     -2.218850     -0.495396
  O       2.138569     -0.980031     -2.216497
  C       2.447358      1.438740     -0.556149
  C       3.306563      1.677720     -1.642567
  C       3.518940      2.985227     -2.124805
  C       2.897145      4.070452     -1.484407
  C       2.059548      3.846472     -0.390668
  C       1.833830      2.541640      0.063812
  C       4.407545      3.276570     -3.295130
  O       5.032171      4.344871     -3.340795
  C       4.546357      2.286746     -4.410597
  C       5.739776      2.274895     -5.155599
  C       5.910512      1.359612     -6.198639
  C       4.886128      0.457797     -6.516002
  C       3.684029      0.484887     -5.800962
  C       3.512524      1.395178     -4.752657
  H       3.088147     -1.297385      1.516837
  H       3.425552      0.421531      1.783870
  H       4.273094     -0.461585      0.490158
  H       1.334495     -2.182135      0.468287
  H       3.837810      0.844074     -2.101942
  H       3.063888      5.086733     -1.847502
  H       1.578039      4.689817      0.109156
  H       1.170396      2.389022      0.920306
  H       6.538868      2.978400     -4.912823
  H       6.844371      1.348084     -6.765179
  H       5.024064     -0.265490     -7.323500
  H       2.878002     -0.209246     -6.049641
  H       2.558838      1.411902     -4.222775
33
Coordinates from ORCA-job Dexketoprofen\Dexketoprofen_PBE_6-311+G\Dexketoprofen_PBE_6-311+G.orcainp E -843.048638937139
  H       1.312332      0.127258      0.718818
  C       2.201881      0.058060      0.064062
  C       3.418407     -0.336355      0.942116
  C       1.868119     -1.053816     -0.938504
  O       1.428998     -2.215572     -0.389704
  O       1.932292     -0.980869     -2.151496
  C       2.403958      1.431795     -0.554650
  C       3.242256      1.657838     -1.658527
  C       3.468046      2.963182     -2.140105
  C       2.845500      4.056603     -1.504923
  C       1.999673      3.838797     -0.415312
  C       1.783598      2.536034      0.055534
  C       4.408777      3.246981     -3.272342
  O       5.052982      4.308845     -3.290376
  C       4.560290      2.258923     -4.388567
  C       5.788935      2.211257     -5.079684
  C       5.967117      1.326801     -6.146578
  C       4.911788      0.494564     -6.553692
  C       3.678006      0.552869     -5.889699
  C       3.504077      1.422948     -4.805409
  H       3.256096     -1.282668      1.483521
  H       3.604551      0.447063      1.691055
  H       4.325017     -0.446807      0.326073
  H       1.367169     -2.158699      0.584256
  H       3.763899      0.818183     -2.119206
  H       3.022583      5.069133     -1.875240
  H       1.507781      4.683940      0.073393
  H       1.122597      2.379706      0.914533
  H       6.606135      2.865198     -4.765501
  H       6.928760      1.286376     -6.665242
  H       5.050954     -0.196558     -7.389753
  H       2.848166     -0.081052     -6.213053
  H       2.531801      1.470432     -4.310330
33
Coordinates from ORCA-job Dexketoprofen\Dexketoprofen_PBE_6-311+G\Dexketoprofen_PBE_6-311+G.orcainp E -843.049139085300
  H       1.399333      0.147495      0.825966
  C       2.209820      0.075374      0.076957
  C       3.507631     -0.354702      0.815844
  C       1.760273     -1.011264     -0.904365
  O       1.409024     -2.200624     -0.343218
  O       1.738951     -0.926065     -2.119146
  C       2.374815      1.446280     -0.552558
  C       3.197064      1.669009     -1.668080
  C       3.423256      2.973369     -2.148100
  C       2.801816      4.068722     -1.511088
  C       1.956562      3.850806     -0.421797
  C       1.751015      2.548206      0.057350
  C       4.382491      3.249843     -3.264734
  O       5.049882      4.297599     -3.265874
  C       4.556841      2.243859     -4.359190
  C       5.808178      2.168018     -5.008623
  C       6.002117      1.284533     -6.072060
  C       4.939289      0.483272     -6.522812
  C       3.686471      0.564516     -5.896575
  C       3.498188      1.428110     -4.809562
  H       3.385428     -1.305178      1.358719
  H       3.779292      0.419908      1.547499
  H       4.338767     -0.465143      0.101916
  H       1.454290     -2.151736      0.633085
  H       3.703796      0.826412     -2.141574
  H       2.981683      5.078776     -1.886201
  H       1.456770      4.693914      0.062048
  H       1.095478      2.384905      0.918606
  H       6.626075      2.802434     -4.658263
  H       6.980622      1.220646     -6.555173
  H       5.088481     -0.201219     -7.362096
  H       2.852827     -0.044230     -6.255620
  H       2.516014      1.494544     -4.335812
33
Coordinates from ORCA-job Dexketoprofen\Dexketoprofen_PBE_6-311+G\Dexketoprofen_PBE_6-311+G.orcainp E -843.049638943061
  H       1.494207      0.159990      0.910648
  C       2.230812      0.083123      0.090723
  C       3.577210     -0.390803      0.705439
  C       1.678932     -0.974064     -0.868039
  O       1.317727     -2.158453     -0.295972
  O       1.536807     -0.850878     -2.072481
  C       2.373955      1.454462     -0.540290
  C       3.201536      1.676124     -1.652108
  C       3.412470      2.977447     -2.143612
  C       2.767898      4.070391     -1.525527
  C       1.913063      3.852017     -0.445197
  C       1.724553      2.552119      0.049164
  C       4.385215      3.249099     -3.247973
  O       5.025314      4.312009     -3.265599
  C       4.571504      2.237466     -4.333102
  C       5.824347      2.164446     -4.979689
  C       6.022385      1.280875     -6.041439
  C       4.961640      0.478542     -6.494246
  C       3.709231      0.554544     -5.868476
  C       3.517132      1.416494     -4.782075
  H       3.473996     -1.345098      1.242765
  H       3.926767      0.368143      1.419677
  H       4.337998     -0.508354     -0.080959
  H       1.449782     -2.123646      0.673204
  H       3.715479      0.833816     -2.119541
  H       2.939701      5.077319     -1.912148
  H       1.391088      4.691539      0.020484
  H       1.062952      2.384739      0.904245
  H       6.637284      2.803049     -4.625763
  H       7.001942      1.217211     -6.521698
  H       5.112924     -0.203317     -7.334802
  H       2.878822     -0.057400     -6.228775
  H       2.537869      1.477440     -4.301367
33
Coordinates from ORCA-job Dexketoprofen\Dexketoprofen_PBE_6-311+G\Dexketoprofen_PBE_6-311+G.orcainp E -843.049885802837
  H       1.556076      0.165783      0.954424
  C       2.253457      0.085239      0.101888
  C       3.613314     -0.426175      0.651249
  C       1.638543     -0.945117     -0.848858
  O       1.255789     -2.121964     -0.274798
  O       1.456973     -0.797206     -2.044955
  C       2.391809      1.461825     -0.520804
  C       3.224742      1.686807     -1.629053
  C       3.407662      2.984865     -2.140034
  C       2.742249      4.071765     -1.536200
  C       1.887572      3.850859     -0.457208
  C       1.717833      2.553648      0.050162
  C       4.369478      3.259640     -3.253505
  O       5.004849      4.323775     -3.275136
  C       4.568065      2.243380     -4.332518
  C       5.825226      2.168321     -4.968147
  C       6.032967      1.275324     -6.020383
  C       4.978079      0.466837     -6.472920
  C       3.720673      0.548081     -5.860814
  C       3.517154      1.421756     -4.786964
  H       3.506943     -1.384220      1.180032
  H       4.011110      0.313607      1.360071
  H       4.337957     -0.553570     -0.166120
  H       1.415734     -2.105428      0.690134
  H       3.759274      0.849356     -2.081604
  H       2.897783      5.077093     -1.933561
  H       1.350328      4.686466     -0.002502
  H       1.055256      2.385217      0.903999
  H       6.633833      2.811971     -4.613951
  H       7.015943      1.208402     -6.492623
  H       5.137461     -0.223397     -7.304899
  H       2.895105     -0.070039     -6.221317
  H       2.533300      1.487490     -4.317616
33
Coordinates from ORCA-job Dexketoprofen\Dexketoprofen_PBE_6-311+G\Dexketoprofen_PBE_6-311+G.orcainp E -843.050021263434
  H       1.627714      0.172392      0.993783
  C       2.277984      0.087947      0.105566
  C       3.641102     -0.486971      0.574531
  C       1.578274     -0.893338     -0.841513
  O       1.153163     -2.057508     -0.274031
  O       1.396719     -0.722351     -2.033756
  C       2.421060      1.474233     -0.497607
  C       3.268225      1.705563     -1.595197
  C       3.421115      2.998907     -2.127097
  C       2.722322      4.076263     -1.547967
  C       1.862088      3.850935     -0.475116
  C       1.713191      2.557071      0.046619
  C       4.372444      3.276370     -3.249258
  O       4.958850      4.365498     -3.307616
  C       4.578875      2.255335     -4.322920
  C       5.820833      2.208363     -4.987184
  C       6.031112      1.298384     -6.025049
  C       4.993875      0.444908     -6.430133
  C       3.749931      0.500334     -5.790850
  C       3.542964      1.394318     -4.735422
  H       3.517447     -1.452089      1.085953
  H       4.104103      0.216250      1.280841
  H       4.322170     -0.628476     -0.276268
  H       1.318566     -2.065870      0.689458
  H       3.831703      0.875998     -2.026794
  H       2.857930      5.079536     -1.957691
  H       1.303195      4.680681     -0.036589
  H       1.043022      2.387168      0.894037
  H       6.616475      2.885781     -4.669032
  H       7.002836      1.252341     -6.521908
  H       5.156223     -0.261215     -7.247941
  H       2.938305     -0.155762     -6.113563
  H       2.568721      1.439396     -4.244813
33
Coordinates from ORCA-job Dexketoprofen\Dexketoprofen_PBE_6-311+G\Dexketoprofen_PBE_6-311+G.orcainp E -843.050116913494
  H       1.672579      0.170934      1.003811
  C       2.295140      0.088312      0.095339
  C       3.660690     -0.515926      0.515500
  C       1.552755     -0.868596     -0.845667
  O       1.081572     -2.010614     -0.272974
  O       1.366539     -0.691001     -2.035953
  C       2.433670      1.480103     -0.496706
  C       3.268159      1.720028     -1.602221
  C       3.409557      3.016023     -2.130816
  C       2.710427      4.087720     -1.541514
  C       1.864123      3.854196     -0.458998
  C       1.727231      2.557516      0.059437
  C       4.341015      3.301029     -3.267762
  O       4.930583      4.388931     -3.328517
  C       4.568048      2.263983     -4.322222
  C       5.808058      2.233373     -4.990919
  C       6.035880      1.307145     -6.010916
  C       5.018551      0.419062     -6.392021
  C       3.776286      0.456573     -5.747074
  C       3.552461      1.367107     -4.708875
  H       3.534197     -1.485786      1.018179
  H       4.157706      0.168842      1.216911
  H       4.315043     -0.660413     -0.355696
  H       1.244473     -2.021127      0.691045
  H       3.831123      0.895168     -2.043733
  H       2.834724      5.093111     -1.949775
  H       1.306646      4.679741     -0.010659
  H       1.066656      2.381957      0.913393
  H       6.588411      2.936965     -4.692134
  H       7.005755      1.275452     -6.512661
  H       5.195112     -0.300804     -7.194896
  H       2.979888     -0.226611     -6.051157
  H       2.579481      1.397995     -4.214279
33
Coordinates from ORCA-job Dexketoprofen\Dexketoprofen_PBE_6-311+G\Dexketoprofen_PBE_6-311+G.orcainp E -843.050201123083
  H       1.660643      0.175688      1.010813
  C       2.293175      0.086784      0.109326
  C       3.658101     -0.503354      0.549162
  C       1.569822     -0.889064     -0.827221
  O       1.087044     -2.019410     -0.242799
  O       1.413177     -0.741355     -2.026078
  C       2.426466      1.471592     -0.499083
  C       3.260618      1.707196     -1.605143
  C       3.408109      3.002606     -2.134511
  C       2.711208      4.077702     -1.546546
  C       1.861822      3.847225     -0.465055
  C       1.721906      2.551475      0.055251
  C       4.349177      3.288332     -3.263849
  O       4.948956      4.372528     -3.312621
  C       4.569504      2.258881     -4.327757
  C       5.816211      2.219355     -4.984900
  C       6.041062      1.306412     -6.017359
  C       5.013846      0.440880     -6.425062
  C       3.764552      0.487671     -5.792416
  C       3.544310      1.383419     -4.739810
  H       3.533622     -1.468014      1.063038
  H       4.144052      0.194194      1.245926
  H       4.321608     -0.654300     -0.314630
  H       1.231267     -2.007303      0.724468
  H       3.824692      0.881149     -2.042497
  H       2.838418      5.082504     -1.955480
  H       1.305325      4.674703     -0.018576
  H       1.060376      2.378569      0.909317
  H       6.604560      2.905326     -4.666378
  H       7.016076      1.268279     -6.509065
  H       5.187839     -0.267631     -7.238767
  H       2.959571     -0.175135     -6.118700
  H       2.565426      1.423486     -4.257529
33
Coordinates from ORCA-job Dexketoprofen\Dexketoprofen_PBE_6-311+G\Dexketoprofen_PBE_6-311+G.orcainp E -843.050268919366
  H       1.661608      0.177405      1.015482
  C       2.297466      0.084456      0.116763
  C       3.658875     -0.507325      0.561521
  C       1.581871     -0.896782     -0.821323
  O       1.052981     -2.001420     -0.229242
  O       1.476167     -0.778429     -2.029288
  C       2.430406      1.466541     -0.498120
  C       3.265140      1.701975     -1.603272
  C       3.411750      2.996909     -2.134435
  C       2.711850      4.072040     -1.549049
  C       1.860522      3.841303     -0.468677
  C       1.722443      2.546063      0.053332
  C       4.354624      3.284900     -3.261637
  O       4.948752      4.372636     -3.311831
  C       4.571732      2.259050     -4.329744
  C       5.815720      2.226008     -4.992952
  C       6.039054      1.318191     -6.030235
  C       5.012801      0.451036     -6.437575
  C       3.765918      0.491089     -5.798798
  C       3.547699      1.381495     -4.740908
  H       3.529176     -1.469599      1.078766
  H       4.145776      0.191492      1.256565
  H       4.324949     -0.664916     -0.299341
  H       1.162611     -1.968140      0.742010
  H       3.832049      0.876853     -2.038559
  H       2.836613      5.076684     -1.959066
  H       1.301530      4.668434     -0.024524
  H       1.059313      2.373844      0.906392
  H       6.604062      2.912434     -4.675380
  H       7.012147      1.285618     -6.526287
  H       5.185509     -0.253375     -7.255168
  H       2.961089     -0.172057     -6.124854
  H       2.570335      1.415978     -4.255099
33
Coordinates from ORCA-job Dexketoprofen\Dexketoprofen_PBE_6-311+G\Dexketoprofen_PBE_6-311+G.orcainp E -843.050298138435
  H       1.695028      0.179626      1.038377
  C       2.315819      0.079669      0.130596
  C       3.676637     -0.528043      0.549681
  C       1.591806     -0.901320     -0.803984
  O       0.950158     -1.936021     -0.198857
  O       1.584049     -0.846683     -2.021579
  C       2.443569      1.459018     -0.492080
  C       3.276508      1.697247     -1.597212
  C       3.412496      2.991119     -2.134103
  C       2.702113      4.062913     -1.554059
  C       1.851501      3.828908     -0.473328
  C       1.725139      2.534875      0.054356
  C       4.353488      3.285354     -3.260970
  O       4.934803      4.380076     -3.315605
  C       4.572651      2.261967     -4.330803
  C       5.812256      2.243955     -5.003450
  C       6.039070      1.340225     -6.043445
  C       5.020327      0.461451     -6.445174
  C       3.777645      0.485860     -5.796736
  C       3.556651      1.372276     -4.735856
  H       3.540416     -1.488292      1.069235
  H       4.185942      0.164646      1.235183
  H       4.326582     -0.696685     -0.321597
  H       0.993050     -1.855654      0.774614
  H       3.851772      0.876259     -2.029179
  H       2.816477      5.067222     -1.967767
  H       1.284356      4.652912     -0.033642
  H       1.061931      2.361454      0.907115
  H       6.595848      2.938182     -4.691223
  H       7.009104      1.320139     -6.546196
  H       5.195410     -0.239678     -7.265092
  H       2.977883     -0.185694     -6.118002
  H       2.582056      1.393105     -4.243751
33
Coordinates from ORCA-job Dexketoprofen\Dexketoprofen_PBE_6-311+G\Dexketoprofen_PBE_6-311+G.orcainp E -843.050336276308
  H       1.692178      0.178972      1.032875
  C       2.310280      0.081818      0.123239
  C       3.674012     -0.523833      0.538561
  C       1.585081     -0.898962     -0.808840
  O       0.975607     -1.953257     -0.202788
  O       1.546989     -0.825163     -2.024655
  C       2.438361      1.463040     -0.495430
  C       3.270308      1.701347     -1.601626
  C       3.409144      2.996208     -2.134952
  C       2.702915      4.068361     -1.551515
  C       1.853653      3.834535     -0.470090
  C       1.724424      2.539777      0.054990
  C       4.350279      3.288235     -3.262122
  O       4.936170      4.380003     -3.315226
  C       4.571459      2.262420     -4.328825
  C       5.812939      2.239231     -4.997502
  C       6.040391      1.331572     -6.033835
  C       5.020574      0.454171     -6.435264
  C       3.776648      0.483544     -5.790409
  C       3.554678      1.373952     -4.733482
  H       3.540586     -1.486313      1.054412
  H       4.182082      0.167700      1.225975
  H       4.321826     -0.686280     -0.335170
  H       1.046408     -1.888045      0.770297
  H       3.841130      0.879126     -2.037230
  H       2.820950      5.073183     -1.962942
  H       1.289720      4.659118     -0.027550
  H       1.062939      2.365764      0.908832
  H       6.596727      2.933034     -4.684853
  H       7.011769      1.307044     -6.533612
  H       5.196043     -0.249975     -7.252413
  H       2.976691     -0.188064     -6.110940
  H       2.579579      1.398129     -4.242442
33
Coordinates from ORCA-job Dexketoprofen\Dexketoprofen_PBE_6-311+G\Dexketoprofen_PBE_6-311+G.orcainp E -843.050344634861
  H       1.683494      0.177564      1.024834
  C       2.307349      0.082486      0.118943
  C       3.670670     -0.520523      0.542875
  C       1.592448     -0.900106     -0.818205
  O       0.990749     -1.961797     -0.216775
  O       1.554299     -0.819600     -2.033376
  C       2.438649      1.465318     -0.495817
  C       3.271514      1.704363     -1.601471
  C       3.409952      2.999600     -2.133997
  C       2.704858      4.071342     -1.549487
  C       1.856085      3.837227     -0.467941
  C       1.725469      2.542057      0.055535
  C       4.349244      3.290203     -3.263200
  O       4.937702      4.380218     -3.316369
  C       4.569762      2.263158     -4.328834
  C       5.811346      2.236428     -4.996867
  C       6.037450      1.326121     -6.031186
  C       5.016286      0.449593     -6.430681
  C       3.772405      0.482804     -5.786678
  C       3.551471      1.376128     -4.732224
  H       3.535159     -1.485274      1.054080
  H       4.171789      0.169756      1.236489
  H       4.324378     -0.677436     -0.327258
  H       1.065479     -1.903029      0.756355
  H       3.840932      0.881960     -2.038333
  H       2.823629      5.076353     -1.960283
  H       1.292729      4.661749     -0.024644
  H       1.063758      2.367360      0.909007
  H       6.595918      2.929879     -4.685422
  H       7.008886      1.298644     -6.530596
  H       5.190709     -0.256784     -7.246094
  H       2.971615     -0.188618     -6.105504
  H       2.576359      1.403247     -4.241407
33
Coordinates from ORCA-job Dexketoprofen\Dexketoprofen_PBE_6-311+G\Dexketoprofen_PBE_6-311+G.orcainp E -843.050347266683
  H       1.688194      0.177803      1.027428
  C       2.308962      0.082165      0.119660
  C       3.673770     -0.521544      0.539558
  C       1.593706     -0.901429     -0.816015
  O       0.982368     -1.956453     -0.212449
  O       1.563920     -0.827324     -2.031813
  C       2.438937      1.464805     -0.495655
  C       3.271567      1.704208     -1.601485
  C       3.408842      2.999528     -2.134178
  C       2.702857      4.070755     -1.550010
  C       1.854364      3.836224     -0.468371
  C       1.724933      2.541125      0.055500
  C       4.348495      3.290336     -3.263081
  O       4.937182      4.380192     -3.315682
  C       4.569603      2.263403     -4.328657
  C       5.811748      2.236007     -4.995598
  C       6.038155      1.325775     -6.029890
  C       5.016734      0.450031     -6.430452
  C       3.772336      0.483986     -5.787597
  C       3.551045      1.377252     -4.733199
  H       3.538524     -1.486870      1.049679
  H       4.176779      0.167788      1.232708
  H       4.324768     -0.677234     -0.332773
  H       1.053034     -1.893100      0.760698
  H       3.841897      0.882239     -2.037935
  H       2.821057      5.075756     -1.961004
  H       1.290386      4.660385     -0.025213
  H       1.063632      2.365949      0.909167
  H       6.596366      2.928992     -4.683224
  H       7.010025      1.297705     -6.528395
  H       5.191379     -0.256274     -7.245863
  H       2.971398     -0.186861     -6.107237
  H       2.575577      1.405072     -4.243152
33
Coordinates from ORCA-job Dexketoprofen\Dexketoprofen_PBE_6-311+G\Dexketoprofen_PBE_6-311+G.orcainp E -843.050347819968
  H       1.688819      0.177622      1.027420
  C       2.309376      0.081872      0.119558
  C       3.674734     -0.521230      0.539913
  C       1.595653     -0.902664     -0.816099
  O       0.980095     -1.955003     -0.212187
  O       1.570797     -0.831597     -2.032176
  C       2.439052      1.464473     -0.495811
  C       3.271630      1.704080     -1.601723
  C       3.408563      2.999542     -2.134247
  C       2.702447      4.070566     -1.550011
  C       1.854075      3.835808     -0.468322
  C       1.724898      2.540649      0.055423
  C       4.348401      3.290360     -3.263061
  O       4.937240      4.380163     -3.315473
  C       4.569523      2.263503     -4.328736
  C       5.811833      2.235564     -4.995289
  C       6.038025      1.325302     -6.029610
  C       5.016223      0.450153     -6.430528
  C       3.771609      0.484740     -5.788113
  C       3.550507      1.378015     -4.733664
  H       3.539552     -1.487216      1.048754
  H       4.176662      0.167766      1.234135
  H       4.326024     -0.675198     -0.332482
  H       1.047553     -1.889363      0.761040
  H       3.842228      0.882273     -2.038061
  H       2.820559      5.075584     -1.961007
  H       1.290014      4.659831     -0.025009
  H       1.063718      2.365147      0.909124
  H       6.596630      2.928179     -4.682525
  H       7.010012      1.296747     -6.527863
  H       5.190766     -0.256216     -7.245910
  H       2.970402     -0.185625     -6.108097
  H       2.574922      1.406562     -4.243896
