33
Coordinates from ORCA-job Dexketoprofen\Dexketoprofen_TPSS_STO-3G\Dexketoprofen_TPSS_STO-3G.orcainp E -833.435525385874
  H       1.201290     -0.169320      0.238970
  C       2.267940     -0.116730     -0.022740
  C       3.062190     -0.566290      1.203420
  C       2.431590     -1.112020     -1.171820
  O       1.778880     -0.741140     -2.304300
  O       3.047910     -2.166470     -1.106110
  C       2.602480      1.328070     -0.374840
  C       3.668120      1.673240     -1.223060
  C       3.892770      3.013660     -1.582870
  C       3.122820      4.026080     -1.001910
  C       2.104810      3.699730     -0.109590
  C       1.837300      2.361580      0.189690
  C       4.928070      3.410420     -2.582030
  O       5.489270      4.498750     -2.463910
  C       5.275890      2.525160     -3.729030
  C       6.553310      2.621000     -4.291240
  C       6.926120      1.767800     -5.333320
  C       6.025180      0.818560     -5.813780
  C       4.738110      0.747190     -5.284950
  C       4.355710      1.614220     -4.264250
  H       2.743020     -1.564120      1.524400
  H       2.914500      0.118040      2.045950
  H       4.136000     -0.614450      0.990430
  H       1.294810      0.099460     -2.221630
  H       4.319390      0.892730     -1.614100
  H       3.314570      5.068790     -1.245300
  H       1.515530      4.489480      0.351310
  H       1.031520      2.134850      0.887110
  H       7.264950      3.356240     -3.917380
  H       7.922510      1.838900     -5.763260
  H       6.323120      0.138980     -6.609640
  H       4.032900      0.011410     -5.666070
  H       3.334940      1.559060     -3.898160
33
Coordinates from ORCA-job Dexketoprofen\Dexketoprofen_TPSS_STO-3G\Dexketoprofen_TPSS_STO-3G.orcainp E -833.465426213676
  H       1.184540     -0.191507      0.272912
  C       2.260967     -0.127856     -0.001286
  C       3.086516     -0.593731      1.236118
  C       2.448024     -1.134296     -1.208864
  O       1.778840     -0.766286     -2.382913
  O       3.102987     -2.205410     -1.164582
  C       2.572938      1.345376     -0.354788
  C       3.639176      1.700561     -1.217394
  C       3.874717      3.054809     -1.570159
  C       3.088012      4.072734     -0.976198
  C       2.055931      3.735440     -0.078988
  C       1.791655      2.381795      0.218026
  C       4.955022      3.468176     -2.576635
  O       5.547725      4.587450     -2.456174
  C       5.297984      2.529248     -3.736853
  C       6.593273      2.597999     -4.308750
  C       6.958986      1.727922     -5.356745
  C       6.033045      0.781255     -5.844092
  C       4.729341      0.729473     -5.306515
  C       4.357664      1.610650     -4.271255
  H       2.780040     -1.609702      1.545379
  H       2.931810      0.085689      2.093441
  H       4.167230     -0.621014      1.007725
  H       1.272027      0.116023     -2.237539
  H       4.295141      0.912798     -1.622284
  H       3.284860      5.129586     -1.220912
  H       1.451615      4.530078      0.388224
  H       0.975139      2.137290      0.917596
  H       7.320295      3.334961     -3.928346
  H       7.970796      1.783945     -5.790341
  H       6.324815      0.088067     -6.650197
  H       4.001536     -0.003122     -5.691890
  H       3.324872      1.574457     -3.889733
33
Coordinates from ORCA-job Dexketoprofen\Dexketoprofen_TPSS_STO-3G\Dexketoprofen_TPSS_STO-3G.orcainp E -833.469179271786
  H       1.188909     -0.198401      0.329824
  C       2.256864     -0.126038      0.022844
  C       3.139103     -0.590042      1.232825
  C       2.441463     -1.131012     -1.208620
  O       1.754790     -0.767882     -2.398304
  O       3.120496     -2.193828     -1.189475
  C       2.541492      1.353512     -0.353828
  C       3.590079      1.703290     -1.243697
  C       3.846691      3.060503     -1.580901
  C       3.062284      4.083737     -0.979374
  C       2.021784      3.748426     -0.084978
  C       1.755375      2.392407      0.216487
  C       4.966820      3.471803     -2.562075
  O       5.579517      4.584366     -2.428195
  C       5.314387      2.506277     -3.714935
  C       6.620235      2.557848     -4.278534
  C       6.978529      1.701263     -5.343018
  C       6.032442      0.786204     -5.864842
  C       4.722703      0.743156     -5.328911
  C       4.364692      1.598313     -4.262458
  H       2.859422     -1.615249      1.538855
  H       2.994943      0.084947      2.096374
  H       4.210916     -0.589508      0.961594
  H       1.276103      0.124175     -2.187264
  H       4.226111      0.909901     -1.671299
  H       3.268052      5.139669     -1.225892
  H       1.412043      4.544279      0.375111
  H       0.933067      2.141595      0.908397
  H       7.354999      3.274849     -3.872670
  H       7.995980      1.745860     -5.766837
  H       6.313879      0.111183     -6.690895
  H       3.978911      0.039176     -5.738864
  H       3.334440      1.568080     -3.870456
33
Coordinates from ORCA-job Dexketoprofen\Dexketoprofen_TPSS_STO-3G\Dexketoprofen_TPSS_STO-3G.orcainp E -833.469943906607
  H       1.203966     -0.205046      0.395872
  C       2.261801     -0.126706      0.057951
  C       3.191457     -0.573833      1.240577
  C       2.436790     -1.137725     -1.175069
  O       1.716021     -0.789204     -2.363392
  O       3.113693     -2.201660     -1.160458
  C       2.522678      1.350394     -0.348900
  C       3.570771      1.693032     -1.242212
  C       3.825713      3.046830     -1.592703
  C       3.034524      4.073720     -1.004158
  C       1.984835      3.744304     -0.118573
  C       1.724818      2.390988      0.201606
  C       4.977506      3.451388     -2.545458
  O       5.608932      4.548356     -2.387962
  C       5.324423      2.485533     -3.703607
  C       6.646207      2.503977     -4.233735
  C       6.999706      1.669897     -5.316735
  C       6.030764      0.815764     -5.898399
  C       4.706977      0.806592     -5.396223
  C       4.355333      1.634525     -4.306653
  H       2.938342     -1.604422      1.550860
  H       3.056331      0.101847      2.105141
  H       4.252620     -0.548943      0.932148
  H       1.267311      0.113718     -2.119877
  H       4.208852      0.896691     -1.660622
  H       3.243471      5.127217     -1.259654
  H       1.363719      4.542427      0.322865
  H       0.898718      2.139227      0.888996
  H       7.394630      3.177684     -3.780578
  H       8.030404      1.685204     -5.710373
  H       6.305556      0.163736     -6.745246
  H       3.943895      0.153449     -5.853052
  H       3.316755      1.633897     -3.936385
33
Coordinates from ORCA-job Dexketoprofen\Dexketoprofen_TPSS_STO-3G\Dexketoprofen_TPSS_STO-3G.orcainp E -833.470238421020
  H       1.227595     -0.193433      0.471468
  C       2.263190     -0.121658      0.070884
  C       3.262449     -0.582525      1.189303
  C       2.357553     -1.124116     -1.175677
  O       1.590500     -0.737365     -2.328575
  O       3.027679     -2.189920     -1.212818
  C       2.511186      1.353876     -0.348303
  C       3.548697      1.695147     -1.255205
  C       3.799568      3.048341     -1.608190
  C       3.008595      4.074372     -1.018713
  C       1.967451      3.745781     -0.124458
  C       1.717359      2.393936      0.207407
  C       4.957852      3.452763     -2.553547
  O       5.587071      4.547652     -2.393095
  C       5.325740      2.476248     -3.696262
  C       6.652534      2.502302     -4.212608
  C       7.023252      1.667689     -5.288216
  C       6.066495      0.805622     -5.876959
  C       4.739453      0.785883     -5.386299
  C       4.370437      1.613114     -4.302176
  H       3.027922     -1.617667      1.498021
  H       3.176866      0.081960      2.068502
  H       4.302135     -0.549886      0.816393
  H       1.185045      0.173129     -2.039698
  H       4.179585      0.897939     -1.683532
  H       3.215093      5.127115     -1.278281
  H       1.346814      4.543520      0.317904
  H       0.900425      2.140265      0.904605
  H       7.389336      3.184216     -3.753238
  H       8.057605      1.688666     -5.671290
  H       6.353932      0.154705     -6.720144
  H       3.986831      0.124719     -5.848256
  H       3.331277      1.600470     -3.932956
33
Coordinates from ORCA-job Dexketoprofen\Dexketoprofen_TPSS_STO-3G\Dexketoprofen_TPSS_STO-3G.orcainp E -833.470467240493
  H       1.254796     -0.180484      0.538776
  C       2.268103     -0.118341      0.084288
  C       3.321276     -0.594181      1.144770
  C       2.284267     -1.113914     -1.168934
  O       1.459380     -0.703351     -2.275109
  O       2.917237     -2.198953     -1.239376
  C       2.508690      1.354708     -0.345153
  C       3.548189      1.694244     -1.251263
  C       3.791538      3.045682     -1.613809
  C       2.990786      4.071398     -1.037787
  C       1.948636      3.744511     -0.145348
  C       1.706960      2.394357      0.198753
  C       4.957256      3.448579     -2.549778
  O       5.569340      4.552762     -2.398510
  C       5.335804      2.472347     -3.688237
  C       6.663352      2.508522     -4.200988
  C       7.043343      1.675228     -5.273747
  C       6.094740      0.805044     -5.862994
  C       4.767439      0.774921     -5.375445
  C       4.388819      1.600876     -4.293873
  H       3.100418     -1.633229      1.449993
  H       3.280665      0.058312      2.035893
  H       4.340418     -0.556804      0.719773
  H       1.097141      0.215686     -1.958811
  H       4.183616      0.897059     -1.672734
  H       3.191958      5.122790     -1.306026
  H       1.320769      4.541890      0.286846
  H       0.890722      2.140408      0.896350
  H       7.392275      3.197683     -3.740290
  H       8.078162      1.703235     -5.654495
  H       6.389055      0.155597     -6.704656
  H       4.022133      0.106549     -5.838431
  H       3.350241      1.579727     -3.923658
33
Coordinates from ORCA-job Dexketoprofen\Dexketoprofen_TPSS_STO-3G\Dexketoprofen_TPSS_STO-3G.orcainp E -833.470708456398
  H       1.298056     -0.169701      0.611529
  C       2.282671     -0.115501      0.097334
  C       3.392231     -0.610403      1.088413
  C       2.208217     -1.100816     -1.160928
  O       1.344674     -0.650415     -2.220768
  O       2.801277     -2.204062     -1.269569
  C       2.511286      1.356564     -0.338497
  C       3.553248      1.699126     -1.241303
  C       3.779654      3.049047     -1.618547
  C       2.964913      4.071471     -1.056488
  C       1.922104      3.741893     -0.166489
  C       1.693888      2.392066      0.189195
  C       4.942422      3.454371     -2.555923
  O       5.552755      4.559131     -2.403165
  C       5.335416      2.472790     -3.683616
  C       6.669289      2.505986     -4.179298
  C       7.062459      1.665463     -5.241580
  C       6.120586      0.791864     -5.836688
  C       4.786915      0.766546     -5.367373
  C       4.394715      1.600352     -4.296970
  H       3.187734     -1.655225      1.385342
  H       3.402870      0.024319      1.993036
  H       4.386022     -0.565188      0.607911
  H       1.030623      0.277500     -1.882214
  H       4.200950      0.905461     -1.649784
  H       3.154315      5.122072     -1.335893
  H       1.282719      4.536095      0.254266
  H       0.878102      2.135005      0.886086
  H       7.391815      3.198250     -3.713368
  H       8.101853      1.689947     -5.609623
  H       6.425197      0.136486     -6.669945
  H       4.047496      0.096153     -5.836788
  H       3.351050      1.586212     -3.942306
33
Coordinates from ORCA-job Dexketoprofen\Dexketoprofen_TPSS_STO-3G\Dexketoprofen_TPSS_STO-3G.orcainp E -833.470917763160
  H       1.348677     -0.156640      0.690735
  C       2.296851     -0.112232      0.111155
  C       3.462686     -0.635872      1.018331
  C       2.114953     -1.083445     -1.149245
  O       1.232477     -0.578334     -2.165040
  O       2.654022     -2.209800     -1.296601
  C       2.514917      1.359366     -0.328512
  C       3.563310      1.704454     -1.223878
  C       3.774360      3.052018     -1.617075
  C       2.939537      4.071148     -1.077701
  C       1.891055      3.739196     -0.195216
  C       1.676593      2.390291      0.174662
  C       4.937361      3.459162     -2.553093
  O       5.530174      4.576428     -2.413773
  C       5.341375      2.473782     -3.673002
  C       6.675903      2.514642     -4.166624
  C       7.078428      1.666223     -5.219483
  C       6.145258      0.777141     -5.805986
  C       4.810540      0.744925     -5.339347
  C       4.408827      1.587169     -4.278958
  H       3.271778     -1.687391      1.300817
  H       3.534466     -0.025311      1.936741
  H       4.425242     -0.583143      0.478540
  H       0.982180      0.361627     -1.807564
  H       4.226710      0.914195     -1.613320
  H       3.117414      5.120485     -1.369483
  H       1.236603      4.530019      0.208605
  H       0.856518      2.130857      0.865823
  H       7.390904      3.218854     -3.706839
  H       8.118000      1.696173     -5.586926
  H       6.457569      0.114733     -6.630951
  H       4.078727      0.062290     -5.803289
  H       3.364104      1.569852     -3.927514
33
Coordinates from ORCA-job Dexketoprofen\Dexketoprofen_TPSS_STO-3G\Dexketoprofen_TPSS_STO-3G.orcainp E -833.471048713546
  H       1.408005     -0.144222      0.763689
  C       2.312716     -0.106635      0.117590
  C       3.531127     -0.663085      0.930276
  C       2.018860     -1.061066     -1.139098
  O       1.103081     -0.515870     -2.099432
  O       2.487046     -2.216163     -1.311971
  C       2.518273      1.366366     -0.322333
  C       3.560522      1.716068     -1.224285
  C       3.758621      3.063204     -1.625308
  C       2.913387      4.077751     -1.092082
  C       1.870090      3.741195     -0.204853
  C       1.670588      2.392491      0.175363
  C       4.914410      3.476558     -2.568289
  O       5.500128      4.599575     -2.434739
  C       5.340764      2.477973     -3.668349
  C       6.677435      2.531308     -4.155626
  C       7.099423      1.669953     -5.190555
  C       6.184278      0.754192     -5.764426
  C       4.847505      0.708005     -5.303627
  C       4.426404      1.562996     -4.260688
  H       3.349837     -1.720543      1.196805
  H       3.669992     -0.078666      1.857994
  H       4.457100     -0.604255      0.330418
  H       0.921359      0.435996     -1.730664
  H       4.230169      0.929136     -1.610389
  H       3.080838      5.127166     -1.390065
  H       1.209230      4.528202      0.196247
  H       0.854823      2.130122      0.870739
  H       7.378498      3.256032     -3.706174
  H       8.140168      1.710615     -5.553975
  H       6.512291      0.080970     -6.574575
  H       4.130390      0.003688     -5.758122
  H       3.380160      1.533801     -3.913506
33
Coordinates from ORCA-job Dexketoprofen\Dexketoprofen_TPSS_STO-3G\Dexketoprofen_TPSS_STO-3G.orcainp E -833.471128940768
  H       1.446900     -0.126729      0.839602
  C       2.315140     -0.103092      0.144497
  C       3.567087     -0.677643      0.889935
  C       1.935137     -1.060942     -1.089583
  O       1.008616     -0.493697     -2.025013
  O       2.354615     -2.234902     -1.263904
  C       2.513059      1.365505     -0.313780
  C       3.548954      1.709644     -1.226396
  C       3.743724      3.053872     -1.638948
  C       2.896301      4.070442     -1.112479
  C       1.856761      3.739160     -0.219196
  C       1.664267      2.394236      0.176958
  C       4.906355      3.468995     -2.573902
  O       5.478649      4.599151     -2.443480
  C       5.347825      2.473222     -3.671296
  C       6.688680      2.537404     -4.145712
  C       7.126992      1.683792     -5.180095
  C       6.223732      0.766081     -5.768670
  C       4.882605      0.709303     -5.321861
  C       4.445512      1.555194     -4.277759
  H       3.387714     -1.735212      1.157246
  H       3.757732     -0.102034      1.813961
  H       4.463205     -0.624442      0.246146
  H       0.879941      0.470497     -1.664221
  H       4.220375      0.921461     -1.606126
  H       3.061930      5.118084     -1.417607
  H       1.195434      4.528029      0.177385
  H       0.853987      2.137548      0.880807
  H       7.380779      3.264410     -3.686166
  H       8.171147      1.733120     -5.532405
  H       6.563997      0.100145     -6.579743
  H       4.174672      0.004548     -5.789655
  H       3.395697      1.517709     -3.942552
33
Coordinates from ORCA-job Dexketoprofen\Dexketoprofen_TPSS_STO-3G\Dexketoprofen_TPSS_STO-3G.orcainp E -833.471150387572
  H       1.472327     -0.116958      0.874728
  C       2.318485     -0.100234      0.152626
  C       3.585809     -0.691566      0.857147
  C       1.887558     -1.054958     -1.068890
  O       0.959421     -0.471270     -1.991487
  O       2.271977     -2.241491     -1.240245
  C       2.514513      1.366831     -0.310266
  C       3.543782      1.710900     -1.230549
  C       3.734213      3.054376     -1.647176
  C       2.887781      4.070755     -1.118389
  C       1.853978      3.739795     -0.218546
  C       1.667020      2.395719      0.183118
  C       4.893699      3.472631     -2.584653
  O       5.455254      4.608781     -2.461253
  C       5.347577      2.473452     -3.673889
  C       6.689565      2.547902     -4.143685
  C       7.140361      1.693302     -5.171858
  C       6.248341      0.764139     -5.759512
  C       4.906276      0.696412     -5.316878
  C       4.456992      1.543035     -4.278567
  H       3.403186     -1.749412      1.121210
  H       3.807714     -0.125229      1.780037
  H       4.464464     -0.642549      0.189479
  H       0.859634      0.498256     -1.634557
  H       4.212896      0.922932     -1.614693
  H       3.049698      5.117946     -1.427158
  H       1.192731      4.528263      0.179054
  H       0.862068      2.140437      0.893609
  H       7.373236      3.283755     -3.685529
  H       8.185554      1.751097     -5.519867
  H       6.597932      0.097726     -6.566235
  H       4.207117     -0.017475     -5.784230
  H       3.406361      1.495559     -3.946906
33
Coordinates from ORCA-job Dexketoprofen\Dexketoprofen_TPSS_STO-3G\Dexketoprofen_TPSS_STO-3G.orcainp E -833.471159135387
  H       1.490631     -0.111841      0.894406
  C       2.322577     -0.098559      0.155976
  C       3.598787     -0.701842      0.833560
  C       1.860190     -1.049023     -1.058110
  O       0.937847     -0.450455     -1.976852
  O       2.218033     -2.244434     -1.224883
  C       2.517514      1.367729     -0.308072
  C       3.542844      1.713412     -1.231901
  C       3.728503      3.056661     -1.651051
  C       2.881255      4.071817     -1.120950
  C       1.851293      3.739532     -0.217310
  C       1.669120      2.395457      0.186824
  C       4.883462      3.477586     -2.592659
  O       5.435905      4.618884     -2.477109
  C       5.345157      2.474731     -3.675134
  C       6.688244      2.553557     -4.141207
  C       7.146834      1.695907     -5.163394
  C       6.261427      0.759111     -5.749097
  C       4.918397      0.686989     -5.310120
  C       4.461440      1.536722     -4.277777
  H       3.413161     -1.760069      1.093937
  H       3.840780     -0.142983      1.755949
  H       4.465843     -0.654627      0.150766
  H       0.859109      0.521876     -1.621839
  H       4.212439      0.926848     -1.618066
  H       3.039433      5.118789     -1.432378
  H       1.188963      4.526725      0.181010
  H       0.867319      2.139560      0.900638
  H       7.366864      3.295102     -3.684748
  H       8.192970      1.757350     -5.507913
  H       6.616776      0.090342     -6.551330
  H       4.224395     -0.032946     -5.775897
  H       3.410009      1.484950     -3.949278
33
Coordinates from ORCA-job Dexketoprofen\Dexketoprofen_TPSS_STO-3G\Dexketoprofen_TPSS_STO-3G.orcainp E -833.471165699683
  H       1.505329     -0.109262      0.907135
  C       2.326938     -0.097725      0.157253
  C       3.609324     -0.709695      0.815050
  C       1.842461     -1.044413     -1.051690
  O       0.931652     -0.431781     -1.972570
  O       2.175503     -2.247895     -1.210985
  C       2.520580      1.368344     -0.306813
  C       3.542907      1.716439     -1.232842
  C       3.723983      3.059897     -1.653231
  C       2.875424      4.073299     -1.121718
  C       1.848627      3.738902     -0.215279
  C       1.670698      2.394445      0.189600
  C       4.873833      3.483400     -2.599657
  O       5.418135      4.629364     -2.492257
  C       5.341381      2.476688     -3.676002
  C       6.685945      2.556195     -4.137811
  C       7.150102      1.694464     -5.154055
  C       6.268832      0.752752     -5.738244
  C       4.924435      0.680130     -5.303698
  C       4.461904      1.533995     -4.277262
  H       3.421405     -1.768274      1.072290
  H       3.865948     -0.156621      1.736935
  H       4.467534     -0.663286      0.121178
  H       0.873128      0.543216     -1.620709
  H       4.214198      0.931882     -1.620050
  H       3.030461      5.120325     -1.434554
  H       1.185395      4.524556      0.184559
  H       0.871355      2.137017      0.905599
  H       7.361431      3.301376     -3.682671
  H       8.197392      1.756691     -5.494884
  H       6.628377      0.080674     -6.535814
  H       4.233584     -0.043641     -5.768204
  H       3.409321      1.481404     -3.952609
33
Coordinates from ORCA-job Dexketoprofen\Dexketoprofen_TPSS_STO-3G\Dexketoprofen_TPSS_STO-3G.orcainp E -833.471174466721
  H       1.529096     -0.106258      0.926830
  C       2.334237     -0.097017      0.159339
  C       3.626150     -0.721092      0.786355
  C       1.815754     -1.038124     -1.040801
  O       0.931473     -0.401486     -1.970734
  O       2.102720     -2.255476     -1.182743
  C       2.524778      1.369002     -0.304837
  C       3.542771      1.721104     -1.234030
  C       3.716496      3.065028     -1.656112
  C       2.865591      4.075380     -1.122434
  C       1.843518      3.737464     -0.211958
  C       1.672255      2.392410      0.193739
  C       4.858275      3.492567     -2.610121
  O       5.389304      4.645931     -2.516398
  C       5.334858      2.479745     -3.676835
  C       6.682029      2.558730     -4.131177
  C       7.154094      1.690456     -5.138190
  C       6.278297      0.742684     -5.720864
  C       4.931431      0.670900     -5.294196
  C       4.460892      1.531274     -4.276799
  H       3.435668     -1.780282      1.039130
  H       3.905152     -0.176558      1.706762
  H       4.470115     -0.675171      0.075247
  H       0.912751      0.578754     -1.628600
  H       4.217009      0.939814     -1.622618
  H       3.015882      5.122553     -1.437118
  H       1.178769      4.520598      0.190287
  H       0.876416      2.132120      0.912598
  H       7.353445      3.308451     -3.677539
  H       8.203383      1.752566     -5.472803
  H       6.643958      0.065324     -6.511128
  H       4.244675     -0.057515     -5.757487
  H       3.406278      1.478982     -3.958778
33
Coordinates from ORCA-job Dexketoprofen\Dexketoprofen_TPSS_STO-3G\Dexketoprofen_TPSS_STO-3G.orcainp E -833.471183028517
  H       1.546434     -0.105244      0.940253
  C       2.339774     -0.097139      0.160589
  C       3.638138     -0.728985      0.766138
  C       1.797214     -1.034643     -1.032744
  O       0.950232     -0.376769     -1.981490
  O       2.036670     -2.264706     -1.151434
  C       2.527354      1.369231     -0.303214
  C       3.542050      1.724877     -1.234828
  C       3.710019      3.069408     -1.657579
  C       2.857625      4.077123     -1.121338
  C       1.839458      3.736187     -0.207513
  C       1.673202      2.390550      0.197987
  C       4.844875      3.500220     -2.618123
  O       5.364943      4.659495     -2.536234
  C       5.328367      2.482317     -3.677110
  C       6.677619      2.559610     -4.125445
  C       7.154880      1.685820     -5.125272
  C       6.282418      0.734374     -5.706887
  C       4.933509      0.664542     -5.286616
  C       4.457648      1.530331     -4.276218
  H       3.446197     -1.788642      1.015940
  H       3.932553     -0.190278      1.685122
  H       4.471930     -0.683103      0.043155
  H       0.972464      0.608478     -1.653340
  H       4.218345      0.946221     -1.625030
  H       3.004382      5.124562     -1.436902
  H       1.173861      4.517282      0.197279
  H       0.880028      2.127540      0.918814
  H       7.346752      3.312085     -3.673054
  H       8.205764      1.746718     -5.455059
  H       6.652265      0.052612     -6.491389
  H       4.249137     -0.066632     -5.749073
  H       3.401411      1.479417     -3.963394
33
Coordinates from ORCA-job Dexketoprofen\Dexketoprofen_TPSS_STO-3G\Dexketoprofen_TPSS_STO-3G.orcainp E -833.471199496603
  H       1.550031     -0.108150      0.940048
  C       2.341887     -0.098653      0.158901
  C       3.641291     -0.730905      0.762123
  C       1.795501     -1.036747     -1.033468
  O       1.018434     -0.360356     -2.026442
  O       1.976725     -2.279967     -1.113540
  C       2.527427      1.368873     -0.302568
  C       3.540087      1.728337     -1.235359
  C       3.704594      3.074140     -1.656064
  C       2.852840      4.079503     -1.114752
  C       1.838288      3.735595     -0.197714
  C       1.674258      2.388923      0.204365
  C       4.832395      3.507630     -2.623486
  O       5.343520      4.671677     -2.553008
  C       5.319398      2.484928     -3.676697
  C       6.670141      2.557245     -4.120966
  C       7.148133      1.678017     -5.115805
  C       6.275214      0.726514     -5.696431
  C       4.924697      0.661974     -5.280641
  C       4.447953      1.533010     -4.275103
  H       3.449066     -1.790789      1.011034
  H       3.937436     -0.193156      1.681085
  H       4.473862     -0.684665      0.037712
  H       1.086448      0.630145     -1.719769
  H       4.216946      0.951775     -1.628744
  H       2.997887      5.127622     -1.429017
  H       1.173665      4.515167      0.211592
  H       0.882896      2.122752      0.926054
  H       7.340240      3.309684     -3.670005
  H       8.200177      1.734946     -5.442587
  H       6.646028      0.040487     -6.476751
  H       4.239572     -0.069019     -5.742244
  H       3.390484      1.486324     -3.965764
33
Coordinates from ORCA-job Dexketoprofen\Dexketoprofen_TPSS_STO-3G\Dexketoprofen_TPSS_STO-3G.orcainp E -833.471204911817
  H       1.525345     -0.115604      0.915799
  C       2.335673     -0.101399      0.153906
  C       3.625995     -0.718113      0.792442
  C       1.827235     -1.049937     -1.047521
  O       1.116207     -0.376731     -2.089843
  O       1.984280     -2.298333     -1.095472
  C       2.521521      1.367298     -0.305203
  C       3.537109      1.727332     -1.235104
  C       3.706280      3.074452     -1.650443
  C       2.858089      4.080234     -1.104950
  C       1.842107      3.736237     -0.189109
  C       1.672603      2.388722      0.206724
  C       4.834849      3.506991     -2.617411
  O       5.350680      4.668864     -2.544991
  C       5.314903      2.485075     -3.674950
  C       6.665102      2.549219     -4.121514
  C       7.134082      1.670454     -5.121191
  C       6.252868      0.728175     -5.704052
  C       4.902650      0.671951     -5.285949
  C       4.434880      1.542254     -4.275635
  H       3.437297     -1.777629      1.045930
  H       3.896569     -0.170505      1.713514
  H       4.474747     -0.670516      0.087004
  H       1.194256      0.618102     -1.799267
  H       4.211689      0.949834     -1.630774
  H       3.006905      5.129184     -1.414774
  H       1.180683      4.516743      0.223593
  H       0.879331      2.121679      0.926014
  H       7.342236      3.294559     -3.669289
  H       8.185736      1.720607     -5.450338
  H       6.617130      0.042707     -6.487952
  H       4.210728     -0.051596     -5.749106
  H       3.377755      1.502551     -3.964098
33
Coordinates from ORCA-job Dexketoprofen\Dexketoprofen_TPSS_STO-3G\Dexketoprofen_TPSS_STO-3G.orcainp E -833.471219758739
  H       1.507137     -0.117199      0.904432
  C       2.328623     -0.101849      0.154573
  C       3.613442     -0.706038      0.815842
  C       1.846009     -1.058101     -1.050395
  O       1.091707     -0.406174     -2.076561
  O       2.055907     -2.297873     -1.116943
  C       2.515678      1.366049     -0.307287
  C       3.535659      1.720784     -1.234611
  C       3.712970      3.067008     -1.649210
  C       2.866712      4.076415     -1.107521
  C       1.845276      3.736929     -0.196188
  C       1.669195      2.390570      0.200826
  C       4.852795      3.495146     -2.605332
  O       5.384251      4.648584     -2.515031
  C       5.324232      2.481107     -3.674025
  C       6.672060      2.547264     -4.127293
  C       7.134370      1.677067     -5.137423
  C       6.248586      0.741407     -5.723905
  C       4.900644      0.682756     -5.298553
  C       4.439684      1.544510     -4.277944
  H       3.429333     -1.764992      1.074925
  H       3.866954     -0.150008      1.736814
  H       4.472187     -0.657412      0.122633
  H       1.124330      0.588441     -1.777906
  H       4.207204      0.939331     -1.627795
  H       3.020537      5.124985     -1.416052
  H       1.185123      4.520470      0.212781
  H       0.872590      2.127407      0.917839
  H       7.352445      3.287616     -3.671688
  H       8.184231      1.728377     -5.472077
  H       6.607596      0.062891     -6.516238
  H       4.205532     -0.035857     -5.764607
  H       3.384518      1.503248     -3.960090
33
Coordinates from ORCA-job Dexketoprofen\Dexketoprofen_TPSS_STO-3G\Dexketoprofen_TPSS_STO-3G.orcainp E -833.471226708646
  H       1.523081     -0.112293      0.924874
  C       2.330974     -0.100028      0.160331
  C       3.623638     -0.713941      0.796846
  C       1.820254     -1.052841     -1.036301
  O       1.076534     -0.391660     -2.064407
  O       2.001193     -2.297599     -1.093477
  C       2.516792      1.366892     -0.303196
  C       3.534545      1.721265     -1.233175
  C       3.708714      3.066590     -1.651559
  C       2.861224      4.075858     -1.111192
  C       1.841530      3.736730     -0.197935
  C       1.668740      2.391019      0.203067
  C       4.847315      3.495566     -2.608882
  O       5.374516      4.651023     -2.520960
  C       5.323659      2.480761     -3.674629
  C       6.671749      2.552339     -4.126475
  C       7.139757      1.682085     -5.133891
  C       6.259249      0.740810     -5.719413
  C       4.911109      0.676611     -5.295442
  C       4.444538      1.538475     -4.277466
  H       3.438411     -1.773826      1.051225
  H       3.893873     -0.165623      1.717711
  H       4.471809     -0.664335      0.090873
  H       1.132424      0.604050     -1.772484
  H       4.206059      0.939906     -1.626518
  H       3.012298      5.123885     -1.422886
  H       1.179927      4.519953      0.209316
  H       0.873742      2.128338      0.922040
  H       7.347961      3.296899     -3.671494
  H       8.189901      1.737662     -5.466989
  H       6.622432      0.062349     -6.509890
  H       4.220326     -0.046576     -5.760913
  H       3.389246      1.492516     -3.960719
33
Coordinates from ORCA-job Dexketoprofen\Dexketoprofen_TPSS_STO-3G\Dexketoprofen_TPSS_STO-3G.orcainp E -833.471230296330
  H       1.522590     -0.111615      0.927579
  C       2.329546     -0.099590      0.162061
  C       3.622408     -0.714674      0.797362
  C       1.816933     -1.053373     -1.032967
  O       1.091988     -0.390550     -2.073397
  O       1.982079     -2.300803     -1.079039
  C       2.515873      1.367003     -0.301673
  C       3.534347      1.720743     -1.231184
  C       3.708912      3.065639     -1.650523
  C       2.861078      4.075367     -1.111491
  C       1.840625      3.736895     -0.198848
  C       1.667452      2.391477      0.203168
  C       4.848759      3.493887     -2.606782
  O       5.378216      4.648088     -2.516062
  C       5.323705      2.480261     -3.674072
  C       6.670684      2.554479     -4.128916
  C       7.138137      1.685500     -5.137674
  C       6.258064      0.742632     -5.721423
  C       4.911029      0.675678     -5.294258
  C       4.445093      1.536382     -4.275086
  H       3.437155     -1.775249      1.048979
  H       3.892084     -0.168672      1.719757
  H       4.470893     -0.663053      0.091940
  H       1.155885      0.606369     -1.787044
  H       4.205721      0.938884     -1.623741
  H       3.012012      5.123226     -1.423801
  H       1.178567      4.520469      0.206993
  H       0.871857      2.129395      0.921698
  H       7.346373      3.300253     -3.675132
  H       8.187410      1.743203     -5.473149
  H       6.620681      0.065159     -6.513011
  H       4.220732     -0.048848     -5.758400
  H       3.390631      1.488301     -3.955876
33
Coordinates from ORCA-job Dexketoprofen\Dexketoprofen_TPSS_STO-3G\Dexketoprofen_TPSS_STO-3G.orcainp E -833.471231924938
  H       1.518395     -0.111332      0.926169
  C       2.327520     -0.099452      0.162959
  C       3.618600     -0.713946      0.802740
  C       1.819120     -1.054876     -1.032238
  O       1.102200     -0.393699     -2.079379
  O       1.981352     -2.302865     -1.073448
  C       2.515056      1.366776     -0.301310
  C       3.535546      1.719735     -1.228904
  C       3.711311      3.064251     -1.648820
  C       2.862571      4.074540     -1.112284
  C       1.840162      3.736810     -0.201544
  C       1.665805      2.391697      0.201094
  C       4.853612      3.491245     -2.602812
  O       5.387650      4.642975     -2.507142
  C       5.325122      2.479770     -3.673336
  C       6.670614      2.556080     -4.132418
  C       7.135883      1.689039     -5.143793
  C       6.255015      0.745706     -5.725729
  C       4.909465      0.676595     -5.294208
  C       4.445736      1.535552     -4.272617
  H       3.433252     -1.775022      1.052192
  H       3.883869     -0.168821      1.726922
  H       4.469878     -0.660499      0.100832
  H       1.164538      0.603775     -1.794685
  H       4.207714      0.937426     -1.619208
  H       3.014046      5.122254     -1.424761
  H       1.177434      4.520832      0.202328
  H       0.868670      2.130374      0.918182
  H       7.346582      3.302261     -3.679706
  H       8.183957      1.748490     -5.482682
  H       6.615828      0.069587     -6.519295
  H       4.218678     -0.048349     -5.756953
  H       3.392338      1.485949     -3.950156
33
Coordinates from ORCA-job Dexketoprofen\Dexketoprofen_TPSS_STO-3G\Dexketoprofen_TPSS_STO-3G.orcainp E -833.471232475232
  H       1.515794     -0.110833      0.925091
  C       2.326458     -0.099433      0.163527
  C       3.616190     -0.713572      0.806463
  C       1.820821     -1.055762     -1.031943
  O       1.103974     -0.395916     -2.080031
  O       1.985114     -2.303489     -1.072763
  C       2.514880      1.366483     -0.301438
  C       3.537012      1.719050     -1.227338
  C       3.713394      3.063353     -1.647697
  C       2.863641      4.073867     -1.113272
  C       1.839648      3.736494     -0.204145
  C       1.664636      2.391605      0.198887
  C       4.857451      3.489527     -2.600030
  O       5.394610      4.639555     -2.501099
  C       5.326498      2.479540     -3.672828
  C       6.671036      2.557007     -4.134672
  C       7.134714      1.691261     -5.147821
  C       6.253167      0.747868     -5.728685
  C       4.908584      0.677577     -5.294410
  C       4.446417      1.535378     -4.271138
  H       3.430566     -1.774899      1.054622
  H       3.878674     -0.168869      1.731677
  H       4.469254     -0.659226      0.106796
  H       1.163915      0.601611     -1.795112
  H       4.210212      0.936650     -1.615695
  H       3.015485      5.121480     -1.425888
  H       1.176216      4.520692      0.198221
  H       0.866232      2.130691      0.914693
  H       7.347243      3.303311     -3.682513
  H       8.182011      1.751717     -5.488920
  H       6.612691      0.072605     -6.523562
  H       4.217299     -0.047419     -5.756314
  H       3.393683      1.484954     -3.946674
33
Coordinates from ORCA-job Dexketoprofen\Dexketoprofen_TPSS_STO-3G\Dexketoprofen_TPSS_STO-3G.orcainp E -833.471232687769
  H       1.515057     -0.110266      0.925107
  C       2.326139     -0.099437      0.163980
  C       3.615343     -0.713655      0.807882
  C       1.820911     -1.056144     -1.031415
  O       1.103634     -0.396558     -2.079314
  O       1.985766     -2.303799     -1.072156
  C       2.514959      1.366270     -0.301557
  C       3.537931      1.718747     -1.226531
  C       3.714409      3.062973     -1.647195
  C       2.863961      4.073491     -1.113987
  C       1.839122      3.736200     -0.205732
  C       1.663987      2.391449      0.197554
  C       4.859345      3.488798     -2.598684
  O       5.397908      4.638055     -2.498342
  C       5.327275      2.479482     -3.672523
  C       6.671358      2.557510     -4.135685
  C       7.134296      1.692379     -5.149655
  C       6.252452      0.748952     -5.730015
  C       4.908332      0.678082     -5.294460
  C       4.446877      1.535337     -4.270384
  H       3.429472     -1.775106      1.055313
  H       3.876980     -0.169331      1.733551
  H       4.468988     -0.658974      0.108950
  H       1.163722      0.601001     -1.794529
  H       4.211842      0.936439     -1.613846
  H       3.015913      5.121043     -1.426743
  H       1.175190      4.520399      0.195801
  H       0.864893      2.130650      0.912630
  H       7.347627      3.303906     -3.683764
  H       8.181223      1.753333     -5.491795
  H       6.611383      0.074085     -6.525495
  H       4.216779     -0.046917     -5.755949
  H       3.394448      1.484468     -3.945019
